geometry optimzed in LAMMPS
_audit_creation_date              2020-11-30 
_audit_creation_method            'lammps2cif' 
_symmetry_space_group_name_H-M    'P1' 
_symmetry_Int_Tables_number       1 
_symmetry_cell_setting            triclinic 
loop_ 
_symmetry_equiv_pos_as_xyz 
  x,y,z 
_cell_length_a                    46.69833641 
_cell_length_b                    46.79641656134505 
_cell_length_c                    46.47468968266857 
_cell_angle_alpha                 89.96126924309178 
_cell_angle_beta                  90.21022341286512 
_cell_angle_gamma                 90.97137715707329 
loop_ 
_atom_site_label 
_atom_site_type_symbol 
_atom_site_fract_x 
_atom_site_fract_y 
_atom_site_fract_z 
_atom_site_charge 
O1          O  0.52766462  0.03895729  0.82969942    -0.85900
O2          O  0.52213785  0.04660774  0.66679562    -0.86100
O3          O  0.58191760  0.03658862  0.74205692    -0.87700
O4          O  0.51718881  0.10039177  0.75245846    -0.86500
O5          O  0.46808034  0.09899891  0.75319188    -0.86100
O6          O  0.58207772  0.98763378  0.74155055    -0.87500
O7          O  0.54695245  0.07133172  0.70165223    -0.85900
O8          O  0.55293235  0.06291044  0.79474500    -0.85500
Zr9        Zr  0.53265462  0.05114811  0.74785175     2.84300
O10         O  0.49150080  0.05109358  0.71908726    -1.07500
O11         O  0.53354217  0.00999952  0.77644632    -1.08200
C12         C  0.54775044  0.05623223  0.82120638     1.07200
C13         C  0.54015614  0.06623682  0.67514406     1.07100
C14         C  0.59456983  0.01240713  0.73969814     1.10100
C15         C  0.49255663  0.11235799  0.75454884     1.07900
H16         H  0.54860344  0.01173287  0.70509186     0.33500
O17         O  0.53234060  0.01105854  0.71783011    -1.28500
H18         H  0.49271734  0.06581165  0.79045746     0.33100
O19         O  0.49245950  0.04949154  0.77776171    -1.30100
O20         O  0.45926609  0.97539691  0.66648002    -0.85900
O21         O  0.45911978  0.97592721  0.83007050    -0.87400
O22         O  0.54697361  0.95311431  0.69958229    -0.86000
O23         O  0.43642146  0.06897306  0.70247449    -0.86000
O24         O  0.43325664  0.06274156  0.79573339    -0.85700
O25         O  0.55376214  0.95526136  0.79233441    -0.85500
O26         O  0.46867581  0.91866764  0.74751380    -0.85900
O27         O  0.40151007  0.98268116  0.74573666    -0.85400
O28         O  0.51782967  0.92017536  0.74703630    -0.86400
O29         O  0.40198555  0.03174613  0.74553521    -0.85600
O30         O  0.52425681  0.97927164  0.66482534    -0.86000
O31         O  0.52722373  0.97550893  0.82815349    -0.85700
O32         O  0.46015014  0.04007438  0.83006371    -0.85400
O33         O  0.45821651  0.04361990  0.66666773    -0.85800
O34         O  0.43612401  0.94909880  0.70123996    -0.86100
O35         O  0.43307372  0.95256216  0.79511955    -0.87400
Zr36       Zr  0.49104853  0.01060654  0.68954443     2.83100
Zr37       Zr  0.49295210  0.00793573  0.80584670     2.83500
Zr38       Zr  0.53299877  0.97002321  0.74662094     2.84100
Zr39       Zr  0.45133837  0.04933878  0.74875120     2.83400
Zr40       Zr  0.45126248  0.96762996  0.74791369     2.84200
O41         O  0.45160950  0.00808288  0.77729332    -1.08000
O42         O  0.49162859  0.96953653  0.71827795    -1.07500
C43         C  0.44207853  0.95503134  0.67475384     1.07200
C44         C  0.43904906  0.95845070  0.82172586     1.09800
C45         C  0.54178369  0.95980657  0.67317006     1.07300
C46         C  0.44132503  0.06322423  0.67574729     1.07700
C47         C  0.44014318  0.05716081  0.82206507     1.07300
C48         C  0.54769591  0.95957691  0.81906630     1.06800
C49         C  0.49345980  0.90673928  0.74743949     1.07300
C50         C  0.38904812  0.00711246  0.74439038     1.06800
H51         H  0.49305292  0.95048939  0.78843539     0.33500
O52         O  0.49267775  0.96743755  0.77655479    -1.29100
H53         H  0.43392389  0.00873122  0.70689174     0.33500
O54         O  0.45069297  0.00889617  0.71905683    -1.30500
C55         C  0.67707877  0.21261789  0.50288656     0.87100
C56         C  0.66399004  0.19382609  0.52675245    -0.53200
C57         C  0.63480702  0.19345028  0.52694840     0.10000
C58         C  0.62109009  0.21128076  0.50296383     0.20900
C59         C  0.66359955  0.20014109  0.47525994    -0.53900
C60         C  0.63428959  0.19940253  0.47495777     0.10100
C61         C  0.66359722  0.24182514  0.50667462    -0.53400
C62         C  0.63438430  0.24149966  0.50694166     0.10700
H63         H  0.67648999  0.18128499  0.54174768     0.15200
H64         H  0.59733716  0.21070137  0.50316925     0.00900
H65         H  0.67611763  0.18999364  0.45868957     0.15500
H66         H  0.67641462  0.26114263  0.51001123     0.15300
O67         O  0.55211231  0.07629417  0.29528923    -0.85900
O68         O  0.44467461  0.95395013  0.29851337    -0.86100
O69         O  0.46713138  0.04885113  0.33061109    -0.87700
O70         O  0.53061146  0.98244208  0.33251433    -0.86500
O71         O  0.55254686  0.95523912  0.29822329    -0.86100
O72         O  0.44412022  0.07365529  0.29513055    -0.87500
O73         O  0.46707125  0.98146028  0.33298785    -0.85900
O74         O  0.52927548  0.05086131  0.33091553    -0.85500
Zr75       Zr  0.49890175  0.01480869  0.30780196     2.84300
O76         O  0.49808672  0.97296461  0.27999393    -1.07500
O77         O  0.49969385  0.05473980  0.27768154    -1.08200
C78         C  0.54558075  0.07157446  0.32202256     1.07200
C79         C  0.45037145  0.96065869  0.32490752     1.07100
C80         C  0.44976941  0.06825379  0.32182792     1.10100
C81         C  0.54722876  0.96220667  0.32456622     1.07900
H82         H  0.44143160  0.01404548  0.29189342     0.33500
O83         O  0.45779408  0.01376886  0.27929134    -1.28500
H84         H  0.55659840  0.01402049  0.29143087     0.33100
O85         O  0.53996037  0.01359854  0.27906959    -1.30100
O86         O  0.43461883  0.95813929  0.20562601    -0.85900
O87         O  0.55944178  0.06611747  0.20123300    -0.87400
O88         O  0.40868216  0.03707544  0.25376653    -0.86000
O89         O  0.52139461  0.92239897  0.24771113    -0.86000
O90         O  0.58854122  0.98790983  0.25280510    -0.85700
O91         O  0.47695420  0.10310712  0.24510839    -0.85500
O92         O  0.46366149  0.04183273  0.16761751    -0.85900
O93         O  0.52985109  0.97651757  0.16858950    -0.85400
O94         O  0.43953497  0.06685293  0.20223831    -0.86400
O95         O  0.55647671  0.95543993  0.20409776    -0.85600
O96         O  0.40792747  0.98810868  0.25562422    -0.86000
O97         O  0.52607139  0.10276118  0.24299985    -0.85700
O98         O  0.58948714  0.03696372  0.25213974    -0.85400
O99         O  0.47225779  0.92279192  0.24714864    -0.85800
O100        O  0.46073165  0.97944034  0.16955940    -0.86100
O101        O  0.53406439  0.04135910  0.16661130    -0.87400
Zr102      Zr  0.45706504  0.97224066  0.25105542     2.83100
Zr103      Zr  0.54037480  0.05353300  0.24863385     2.83500
Zr104      Zr  0.45862139  0.05380355  0.24897298     2.84100
Zr105      Zr  0.53859471  0.97197798  0.25057957     2.83400
Zr106      Zr  0.49806074  0.01093316  0.19119886     2.84200
O107        O  0.53905148  0.01199436  0.22051868    -1.08000
O108        O  0.45778799  0.01225082  0.22102621    -1.07500
C109        C  0.43973969  0.96336534  0.17880955     1.07200
C110        C  0.55415944  0.05911364  0.17477719     1.09800
C111        C  0.39557492  0.01259484  0.25655530     1.07300
C112        C  0.49651447  0.90997078  0.24559235     1.07700
C113        C  0.60172474  0.01242306  0.25348649     1.07300
C114        C  0.50182254  0.11555275  0.24264856     1.06800
C115        C  0.44444087  0.05953951  0.17596076     1.07300
C116        C  0.54952477  0.95939716  0.17741304     1.06800
H117        H  0.49950023  0.06882190  0.20643225     0.33500
O118        O  0.49925353  0.05260117  0.21926455    -1.29100
H119        H  0.49683728  0.95427182  0.20930972     0.33500
O120        O  0.49747483  0.97105105  0.22133410    -1.30500
C121        C  0.29857138  0.82153010  0.99988302     0.87100
C122        C  0.31463536  0.83450031  0.97400029    -0.53200
C123        C  0.31638538  0.86361912  0.97421163     0.10000
C124        C  0.30182830  0.87734994  0.00044947     0.20900
C125        C  0.31467692  0.83398251  0.02615205    -0.53900
C126        C  0.31661931  0.86327993  0.02663193     0.10100
C127        C  0.26957936  0.83609791  0.99978232    -0.53400
C128        C  0.27093624  0.86509978  0.00036225     0.10700
H129        H  0.32499181  0.82242371  0.95728719     0.15200
H130        H  0.30263927  0.90103645  0.00046700     0.00900
H131        H  0.32436159  0.82056464  0.04244151     0.15500
H132        H  0.24941346  0.82418450  0.00060723     0.15300
C133        C  0.69055745  0.82570429  0.99828898     0.87100
C134        C  0.67030554  0.83547467  0.02250000    -0.53200
C135        C  0.66579448  0.86417026  0.02309612     0.10000
C136        C  0.68147145  0.88072137  0.99920729     0.20900
C137        C  0.67647200  0.83720863  0.97072668    -0.53900
C138        C  0.67158986  0.86603785  0.97099944     0.10100
C139        C  0.71767233  0.84412141  0.00249054    -0.53400
C140        C  0.71301806  0.87280530  0.00323386     0.10700
H141        H  0.66018254  0.82172492  0.03824441     0.15200
H142        H  0.67781402  0.90406946  0.99982551     0.00900
H143        H  0.66959241  0.82325664  0.95330304     0.15500
H144        H  0.73880125  0.83510066  0.00521417     0.15300
C145        C  0.68051336  0.81816903  0.49762325     0.87100
C146        C  0.66846053  0.83540319  0.47234488    -0.53200
C147        C  0.63957484  0.83932617  0.47369668     0.10000
C148        C  0.62544164  0.82611702  0.50043608     0.20900
C149        C  0.67117282  0.83553628  0.52404499    -0.53900
C150        C  0.64223669  0.83970144  0.52574567     0.10100
C151        C  0.66266348  0.79061061  0.49852215    -0.53400
C152        C  0.63400339  0.79470854  0.49988722     0.10700
H153        H  0.68151409  0.84508719  0.45562119     0.15200
H154        H  0.60192534  0.82878036  0.50135882     0.00900
H155        H  0.68652879  0.84545933  0.53861049     0.15500
H156        H  0.67201131  0.76949388  0.49838442     0.15300
C157        C  0.30386366  0.19607150  0.00133611     0.87100
C158        C  0.31867464  0.18304248  0.02797545    -0.53200
C159        C  0.32192263  0.15404528  0.02628510     0.10000
C160        C  0.31001220  0.14071087  0.99845681     0.20900
C161        C  0.32228039  0.18617925  0.97585779    -0.53900
C162        C  0.32544448  0.15719378  0.97429791     0.10100
C163        C  0.27575683  0.17912181  0.99858192    -0.53400
C164        C  0.27887835  0.15041076  0.99670415     0.10700
H165        H  0.32715239  0.19515285  0.04600680     0.15200
H166        H  0.31238926  0.11716475  0.99734078     0.00900
H167        H  0.33147697  0.20086199  0.96018605     0.15500
H168        H  0.25493567  0.18913225  0.99748756     0.15300
C169        C  0.69140731  0.19743579  0.99346288     0.87100
C170        C  0.67092039  0.18501206  0.97031914    -0.53200
C171        C  0.66910958  0.15583562  0.97019101     0.10000
C172        C  0.68792992  0.14159707  0.99311878     0.20900
C173        C  0.68070453  0.18425537  0.02196152    -0.53900
C174        C  0.67840711  0.15507593  0.02177077     0.10100
C175        C  0.71976487  0.18281448  0.98718095    -0.53400
C176        C  0.71818944  0.15376670  0.98703078     0.10700
H177        H  0.65981872  0.19742788  0.95430651     0.15200
H178        H  0.68651584  0.11788783  0.99306319     0.00900
H179        H  0.67371047  0.19708082  0.04000741     0.15500
H180        H  0.73958648  0.19457573  0.98298702     0.15300
C181        C  0.30927279  0.20801130  0.49645370     0.87100
C182        C  0.32102281  0.19118690  0.47049544    -0.53200
C183        C  0.34966279  0.18627311  0.47195822     0.10000
C184        C  0.36443451  0.19880829  0.49870905     0.20900
C185        C  0.31885206  0.19065206  0.52287728    -0.53900
C186        C  0.34775068  0.18580427  0.52417342     0.10100
C187        C  0.32795393  0.23526684  0.49732821    -0.53400
C188        C  0.35668392  0.23055580  0.49875857     0.10700
H189        H  0.30859529  0.18329800  0.45242669     0.15200
H190        H  0.38786899  0.19530672  0.49942308     0.00900
H191        H  0.30375676  0.18224729  0.53856459     0.15500
H192        H  0.31916610  0.25661352  0.49677449     0.15300
C193        C  0.30424068  0.81749479  0.49540347     0.87100
C194        C  0.31803902  0.83181245  0.52219977    -0.53200
C195        C  0.34734281  0.83281099  0.52164470     0.10000
C196        C  0.36035241  0.81961628  0.49452703     0.20900
C197        C  0.31689237  0.83482981  0.47012943    -0.53900
C198        C  0.34626885  0.83619375  0.46963537     0.10100
C199        C  0.31839882  0.78837060  0.49366842    -0.53400
C200        C  0.34739978  0.78923616  0.49256158     0.10700
H201        H  0.30672277  0.84213811  0.53939086     0.15200
H202        H  0.38412128  0.82017784  0.49418302     0.00900
H203        H  0.30351562  0.84608762  0.45488018     0.15500
H204        H  0.30622039  0.76839727  0.49230517     0.15300
O205        O  0.89987065  0.75914995  0.47207923    -0.85900
O206        O  0.01729273  0.75357655  0.58511424    -0.86100
O207        O  0.93202613  0.71019408  0.54983864    -0.87700
O208        O  0.93834984  0.80263296  0.55771703    -0.86500
O209        O  0.96090282  0.83721636  0.53071517    -0.86100
O210        O  0.95937249  0.67564282  0.52880726    -0.87500
O211        O  0.96818711  0.75225838  0.58562611    -0.85900
O212        O  0.90163466  0.76140456  0.52144051    -0.85500
Zr213      Zr  0.95132002  0.75695493  0.53660286     2.84300
O214        O  0.99235092  0.78625082  0.53622439    -1.07500
O215        O  0.95021159  0.72773369  0.49591770    -1.08200
C216        C  0.88825518  0.76199347  0.49707286     1.07200
C217        C  0.99287452  0.75095157  0.59804422     1.07100
C218        C  0.93882275  0.68399738  0.54509419     1.10100
C219        C  0.94420635  0.82897705  0.55135104     1.07900
H220        H  0.99240159  0.71605750  0.55261322     0.33500
O221        O  0.99210337  0.72847713  0.53605459    -1.28500
H222        H  0.93400023  0.79809680  0.49607082     0.33100
O223        O  0.95040587  0.78585796  0.49562748    -1.30100
O224        O  0.08221436  0.76118696  0.51696334    -0.85900
O225        O  0.96347955  0.75262306  0.40449150    -0.87400
O226        O  0.02546488  0.67711737  0.52745443    -0.86000
O227        O  0.02434174  0.83855320  0.52839900    -0.86000
O228        O  0.95875096  0.83823062  0.46260080    -0.85700
O229        O  0.95599031  0.67494312  0.46572333    -0.85500
O230        O  0.05051907  0.71327577  0.43959324    -0.85900
O231        O  0.04439261  0.80459814  0.43279766    -0.85400
O232        O  0.02504530  0.67753597  0.46235075    -0.86400
O233        O  0.02372583  0.83896583  0.46067511    -0.85600
O234        O  0.05172963  0.71227251  0.55012091    -0.86000
O235        O  0.92961049  0.70891901  0.44245785    -0.85700
O236        O  0.93459967  0.80342408  0.43708299    -0.85400
O237        O  0.04879657  0.80412752  0.55312239    -0.85800
O238        O  0.07987500  0.76234952  0.46767660    -0.86100
O239        O  0.01256917  0.75387441  0.40394317    -0.87400
Zr240      Zr  0.03306677  0.75793637  0.53507038     2.83100
Zr241      Zr  0.94891337  0.75639984  0.45476963     2.83500
Zr242      Zr  0.99139183  0.69978363  0.49520338     2.84100
Zr243      Zr  0.99155412  0.81492622  0.49505273     2.83400
Zr244      Zr  0.03018490  0.75838147  0.45301842     2.84200
O245        O  0.98952246  0.78640136  0.45372472    -1.08000
O246        O  0.03210232  0.72936257  0.49394842    -1.07500
C247        C  0.09371953  0.76324786  0.49171426     1.07200
C248        C  0.98787756  0.75194575  0.39143309     1.09800
C249        C  0.04539562  0.68585669  0.54487803     1.07300
C250        C  0.04268927  0.83028992  0.54738062     1.07700
C251        C  0.94065711  0.82986242  0.44322074     1.07300
C252        C  0.93553063  0.68273009  0.44887231     1.06800
C253        C  0.04509048  0.68685297  0.44548426     1.07300
C254        C  0.03990285  0.83088386  0.43971462     1.06800
H255        H  0.98943199  0.71558018  0.43730055     0.33500
O256        O  0.98979263  0.72803989  0.45380686    -1.29100
H257        H  0.04888022  0.79961618  0.49361770     0.33500
O258        O  0.03225042  0.78710777  0.49408885    -1.30500
O259        O  0.90358452  0.24806863  0.47589469    -0.85900
O260        O  0.01911454  0.26099078  0.58952120    -0.86100
O261        O  0.93794162  0.20936048  0.55793793    -0.87700
O262        O  0.93352782  0.30272816  0.55468080    -0.86500
O263        O  0.95936389  0.33831649  0.53201580    -0.86100
O264        O  0.96179093  0.17536766  0.53225226    -0.87500
O265        O  0.96998054  0.25884348  0.59021323    -0.85900
O266        O  0.90411422  0.25047329  0.52523867    -0.85500
Zr267      Zr  0.95334694  0.25647467  0.54067003     2.84300
O268        O  0.99394137  0.28656286  0.54074472    -1.07500
O269        O  0.95311152  0.22743618  0.49967052    -1.08200
C270        C  0.89142149  0.24693500  0.50080498     1.07200
C271        C  0.99471745  0.26107329  0.60255725     1.07100
C272        C  0.94388106  0.18315475  0.55183482     1.10100
C273        C  0.93926532  0.32932824  0.54902852     1.07900
H274        H  0.99446906  0.21671411  0.55725050     0.33500
O275        O  0.99430408  0.22847196  0.54018531    -1.28500
H276        H  0.93490335  0.29635192  0.49973756     0.33100
O277        O  0.95217752  0.28535027  0.49969820    -1.30100
O278        O  0.08398653  0.25348539  0.52289774    -0.85900
O279        O  0.96715080  0.26124535  0.40919348    -0.87400
O280        O  0.02724456  0.17723010  0.53207788    -0.86000
O281        O  0.02778518  0.33894596  0.53153507    -0.86000
O282        O  0.95895589  0.33770716  0.46665203    -0.85700
O283        O  0.96240404  0.17552915  0.46499733    -0.85500
O284        O  0.05126098  0.21332432  0.43938509    -0.85900
O285        O  0.05179359  0.30640434  0.44286511    -0.85400
O286        O  0.02741044  0.17811294  0.46465342    -0.86400
O287        O  0.02456067  0.33994495  0.46562820    -0.85600
O288        O  0.04985558  0.21224937  0.55856687    -0.86000
O289        O  0.93967826  0.20983481  0.43838008    -0.85700
O290        O  0.93293668  0.30219350  0.44413059    -0.85400
O291        O  0.05450860  0.30462357  0.55396328    -0.85800
O292        O  0.08361546  0.25475331  0.47361007    -0.86100
O293        O  0.01625768  0.26153351  0.40806286    -0.87400
Zr294      Zr  0.03490563  0.25825578  0.53970727     2.83100
Zr295      Zr  0.95232311  0.25635067  0.45879671     2.83500
Zr296      Zr  0.99432557  0.19987718  0.49878712     2.84100
Zr297      Zr  0.99299158  0.31531297  0.49948892     2.83400
Zr298      Zr  0.03417005  0.25898958  0.45750853     2.84200
O299        O  0.99280306  0.28656748  0.45830507    -1.08000
O300        O  0.03479675  0.22980509  0.49844214    -1.07500
C301        C  0.09646054  0.25239727  0.49814455     1.07200
C302        C  0.99133022  0.26273070  0.39591836     1.09800
C303        C  0.04448722  0.18582311  0.55221013     1.07300
C304        C  0.04827089  0.33083669  0.54835488     1.07700
C305        C  0.93894617  0.32876449  0.44937431     1.07300
C306        C  0.94582063  0.18367397  0.44439550     1.06800
C307        C  0.04547679  0.18684956  0.44533829     1.07300
C308        C  0.04452173  0.33245551  0.44814495     1.06800
H309        H  0.99389008  0.21747426  0.44048124     0.33500
O310        O  0.99369654  0.22894122  0.45770993    -1.29100
H311        H  0.05145645  0.29948308  0.49860015     0.33500
O312        O  0.03443972  0.28751979  0.49880529    -1.30500
C313        C  0.79662473  0.50742247  0.68137631     0.87100
C314        C  0.81294733  0.48116908  0.67054950    -0.53200
C315        C  0.81729824  0.48073276  0.64149473     0.10000
C316        C  0.80460457  0.50662243  0.62570495     0.20900
C317        C  0.81372014  0.53327533  0.66986436    -0.53900
C318        C  0.81792062  0.53285515  0.64080415     0.10100
C319        C  0.76886137  0.50664470  0.66360473    -0.53400
C320        C  0.77297639  0.50697547  0.63457375     0.10700
H321        H  0.81992452  0.46373483  0.68401110     0.15200
H322        H  0.80786767  0.50654045  0.60205751     0.00900
H323        H  0.82211788  0.55019800  0.68365490     0.15500
H324        H  0.74766393  0.50702539  0.67313258     0.15300
C325        C  0.18498944  0.51205615  0.68362081     0.87100
C326        C  0.16499015  0.53525198  0.67181799    -0.53200
C327        C  0.16333961  0.53590397  0.64241537     0.10000
C328        C  0.18178683  0.51348469  0.62740118     0.20900
C329        C  0.17331557  0.48436257  0.67008374    -0.53900
C330        C  0.17148857  0.48481753  0.64070996     0.10100
C331        C  0.21359378  0.51819566  0.66865652    -0.53400
C332        C  0.21212009  0.51906845  0.63944492     0.10700
H333        H  0.15321531  0.55016576  0.68480751     0.15200
H334        H  0.18063338  0.51425088  0.60354454     0.00900
H335        H  0.16535953  0.46666743  0.68306926     0.15500
H336        H  0.23349756  0.52198763  0.68034801     0.15300
C337        C  0.81494287  0.00994320  0.29525413     0.87100
C338        C  0.82144651  0.98559992  0.31675305    -0.53200
C339        C  0.84992641  0.98296440  0.32302027     0.10000
C340        C  0.86934317  0.00461326  0.30745475     0.20900
C341        C  0.82887288  0.03673479  0.30875276    -0.53900
C342        C  0.85730033  0.03393690  0.31536874     0.10100
C343        C  0.83384380  0.00282494  0.26923637    -0.53400
C344        C  0.86211309  0.00016161  0.27566799     0.10700
H345        H  0.80524468  0.97110356  0.32539681     0.15200
H346        H  0.89246528  0.00219311  0.31242363     0.00900
H347        H  0.81679370  0.05564014  0.31400545     0.15500
H348        H  0.82591061  0.99856145  0.24770312     0.15300
C349        C  0.80393070  0.00500152  0.68781702     0.87100
C350        C  0.81829441  0.03267339  0.67682717    -0.53200
C351        C  0.84742412  0.03175728  0.67536345     0.10000
C352        C  0.85989927  0.00319388  0.68561890     0.20900
C353        C  0.81561324  0.98138682  0.66791225    -0.53900
C354        C  0.84481816  0.98061133  0.66677858     0.10100
C355        C  0.81836421  0.99910889  0.71680237    -0.53400
C356        C  0.84751501  0.99790114  0.71596486     0.10700
H357        H  0.80624928  0.05078842  0.66903012     0.15200
H358        H  0.88358999  0.00245631  0.68427096     0.00900
H359        H  0.80308027  0.96567374  0.65631230     0.15500
H360        H  0.80623273  0.99622350  0.73652427     0.15300
C361        C  0.80101225  0.50512189  0.31068765     0.87100
C362        C  0.81304947  0.53185301  0.32599729    -0.53200
C363        C  0.81277537  0.53006568  0.35529637     0.10000
C364        C  0.79994234  0.50174108  0.36691848     0.20900
C365        C  0.81916653  0.48096348  0.32330556    -0.53900
C366        C  0.81783986  0.47834360  0.35257305     0.10100
C367        C  0.77100624  0.50040155  0.32329531    -0.53400
C368        C  0.77025108  0.49868315  0.35258455     0.10700
H369        H  0.82273468  0.54987216  0.31468396     0.15200
H370        H  0.79922205  0.50052415  0.39075177     0.00900
H371        H  0.83383684  0.46838761  0.31085846     0.15500
H372        H  0.75183080  0.49884643  0.31003461     0.15300
C373        C  0.18596554  0.51216133  0.31208341     0.87100
C374        C  0.16498368  0.48861659  0.32243215    -0.53200
C375        C  0.16144369  0.48785276  0.35154966     0.10000
C376        C  0.17832942  0.51137435  0.36761633     0.20900
C377        C  0.17300829  0.53979076  0.32418054    -0.53900
C378        C  0.16871440  0.53919555  0.35330137     0.10100
C379        C  0.21345975  0.50790478  0.32958472    -0.53400
C380        C  0.20960958  0.50771938  0.35864562     0.10700
H381        H  0.15423368  0.47360051  0.30804690     0.15200
H382        H  0.17534459  0.51090882  0.39122841     0.00900
H383        H  0.16546299  0.55723539  0.31100457     0.15500
H384        H  0.23434798  0.50585281  0.31965919     0.15300
C385        C  0.18191310  0.01281235  0.30307696     0.87100
C386        C  0.16926359  0.03816883  0.31996690    -0.53200
C387        C  0.14010273  0.03694381  0.32271898     0.10000
C388        C  0.12594292  0.01085721  0.30804878     0.20900
C389        C  0.17029992  0.98620500  0.31897557    -0.53900
C390        C  0.14111669  0.98505981  0.32187502     0.10100
C391        C  0.16567676  0.01311924  0.27432951    -0.53400
C392        C  0.13656529  0.01229533  0.27661618     0.10700
H393        H  0.18157904  0.05541353  0.32969062     0.15200
H394        H  0.10225252  0.01023868  0.31009118     0.00900
H395        H  0.18417371  0.96977784  0.32741270     0.15500
H396        H  0.17644013  0.01482544  0.25369139     0.15300
C397        C  0.17813897  0.00589235  0.69222019     0.87100
C398        C  0.16547386  0.97905221  0.67736239    -0.53200
C399        C  0.13685071  0.98049398  0.67181690     0.10000
C400        C  0.12308191  0.00826431  0.68207623     0.20900
C401        C  0.16940524  0.03088507  0.67255654    -0.53900
C402        C  0.14056662  0.03219526  0.66750519     0.10100
C403        C  0.15965135  0.00909523  0.71933369    -0.53400
C404        C  0.13103804  0.01084855  0.71395401     0.10700
H405        H  0.17747017  0.96054608  0.67098899     0.15200
H406        H  0.09968342  0.00919376  0.67785322     0.00900
H407        H  0.18459675  0.04653616  0.66406249     0.15500
H408        H  0.16846016  0.01094641  0.74093030     0.15300
O409        O  0.73993856  0.60278103  0.97235662    -0.85900
O410        O  0.74951714  0.48689141  0.08645306    -0.86100
O411        O  0.69710784  0.56826038  0.05514095    -0.87700
O412        O  0.79025762  0.57056544  0.05420165    -0.86500
O413        O  0.82463815  0.54463013  0.03131748    -0.86100
O414        O  0.66220414  0.54514309  0.02876415    -0.87500
O415        O  0.74968699  0.53593260  0.08661135    -0.85900
O416        O  0.74086672  0.60289334  0.02170701    -0.85500
Zr417      Zr  0.74371532  0.55321553  0.03764817     2.84300
O418        O  0.77187594  0.51247046  0.03718373    -1.07500
O419        O  0.71527821  0.55311023  0.99643465    -1.08200
C420        C  0.73881635  0.61540266  0.99697503     1.07200
C421        C  0.75223613  0.51139969  0.09901899     1.07100
C422        C  0.67064509  0.56282212  0.04854149     1.10100
C423        C  0.81651071  0.56388858  0.04926499     1.07900
H424        H  0.70264765  0.51238116  0.05468299     0.33500
O425        O  0.71422635  0.51234701  0.03753310    -1.28500
H426        H  0.78501643  0.57119105  0.99760740     0.33100
O427        O  0.77317248  0.55411941  0.99710264    -1.30100
O428        O  0.73663586  0.42284290  0.01929563    -0.85900
O429        O  0.74775152  0.53829729  0.90612795    -0.87400
O430        O  0.66177747  0.48071626  0.02986034    -0.86000
O431        O  0.82467162  0.48006211  0.02955500    -0.86000
O432        O  0.82553755  0.54733446  0.96504597    -0.85700
O433        O  0.66356590  0.54798842  0.96500962    -0.85500
O434        O  0.69642144  0.45772854  0.93563884    -0.85900
O435        O  0.78974114  0.45417934  0.94064725    -0.85400
O436        O  0.66169973  0.48061800  0.96108514    -0.86400
O437        O  0.82476890  0.47911813  0.96520728    -0.85600
O438        O  0.69584606  0.45738154  0.05616925    -0.86000
O439        O  0.69857523  0.57219028  0.93992697    -0.85700
O440        O  0.79117482  0.57372310  0.94238367    -0.85400
O441        O  0.78928880  0.45319157  0.05127881    -0.85800
O442        O  0.73716160  0.42335057  0.97003570    -0.86100
O443        O  0.74740649  0.48936997  0.90593995    -0.87400
Zr444      Zr  0.74259883  0.47155990  0.03689349     2.83100
Zr445      Zr  0.74444774  0.55397522  0.95584566     2.83500
Zr446      Zr  0.68567752  0.51253096  0.99579944     2.84100
Zr447      Zr  0.80124194  0.51297341  0.99670461     2.83400
Zr448      Zr  0.74304126  0.47266363  0.95492349     2.84200
O449        O  0.77291119  0.51333657  0.95515312    -1.08000
O450        O  0.71378673  0.47178273  0.99563891    -1.07500
C451        C  0.73476553  0.41049123  0.99447840     1.07200
C452        C  0.74927612  0.51386181  0.89335982     1.09800
C453        C  0.66960239  0.46364086  0.05015915     1.07300
C454        C  0.81586930  0.45975940  0.04636376     1.07700
C455        C  0.81749761  0.56773033  0.94819791     1.07300
C456        C  0.67220643  0.56704373  0.94674369     1.06800
C457        C  0.66997131  0.46322159  0.94120756     1.07300
C458        C  0.81624146  0.45961174  0.94731037     1.06800
H459        H  0.70290539  0.51382778  0.93740342     0.33500
O460        O  0.71454937  0.51335560  0.95458553    -1.29100
H461        H  0.78299291  0.45478349  0.99608507     0.33500
O462        O  0.77172725  0.47186819  0.99614573    -1.30500
O463        O  0.24841538  0.59855664  0.97361302    -0.85900
O464        O  0.23999734  0.48213379  0.08846344    -0.86100
O465        O  0.19892875  0.56871023  0.05281040    -0.87700
O466        O  0.29092468  0.56355103  0.05963130    -0.86500
O467        O  0.32614583  0.54230496  0.03338484    -0.86100
O468        O  0.16340587  0.54285861  0.02994126    -0.87500
O469        O  0.23901706  0.53126351  0.08844891    -0.85900
O470        O  0.24883646  0.59769742  0.02302839    -0.85500
Zr471      Zr  0.24477059  0.54865544  0.03933441     2.84300
O472        O  0.27325939  0.50821116  0.03971003    -1.07500
O473        O  0.21619451  0.54930271  0.99794060    -1.08200
C474        C  0.25011527  0.61069327  0.99856578     1.07200
C475        C  0.23737932  0.50659259  0.10091779     1.07100
C476        C  0.17237432  0.56309213  0.04690248     1.10100
C477        C  0.31749075  0.55890192  0.05381902     1.07900
H478        H  0.20248063  0.50761046  0.05552411     0.33500
O479        O  0.21518677  0.50782931  0.03897388    -1.28500
H480        H  0.28667155  0.56641152  0.99866132     0.33100
O481        O  0.27409708  0.54964276  0.99849227    -1.30100
O482        O  0.24830623  0.41815341  0.02138559    -0.85900
O483        O  0.24086160  0.53223410  0.90723886    -0.87400
O484        O  0.16241121  0.47446598  0.02988972    -0.86000
O485        O  0.32576136  0.47856896  0.03377233    -0.86000
O486        O  0.32681903  0.54050580  0.96512523    -0.85700
O487        O  0.16372084  0.54175281  0.96468566    -0.85500
O488        O  0.19760908  0.44976361  0.94186962    -0.85900
O489        O  0.29106592  0.45572139  0.93741319    -0.85400
O490        O  0.16306213  0.47548223  0.96486649    -0.86400
O491        O  0.32597322  0.47794204  0.96464897    -0.85600
O492        O  0.19686417  0.44777305  0.05193600    -0.86000
O493        O  0.19896025  0.56691742  0.94102440    -0.85700
O494        O  0.29242409  0.56306125  0.93854303    -0.85400
O495        O  0.29043297  0.45385388  0.05802398    -0.85800
O496        O  0.24831777  0.41825618  0.97208049    -0.86100
O497        O  0.24074402  0.48326722  0.90736934    -0.87400
Zr498      Zr  0.24393792  0.46717133  0.03857531     2.83100
Zr499      Zr  0.24525827  0.54917663  0.95696034     2.83500
Zr500      Zr  0.18657714  0.50854312  0.99791675     2.84100
Zr501      Zr  0.30256711  0.50927068  0.99905800     2.83400
Zr502      Zr  0.24453157  0.46792329  0.95709556     2.84200
O503        O  0.27395271  0.50884150  0.95744053    -1.08000
O504        O  0.21489780  0.46744934  0.99756816    -1.07500
C505        C  0.25003823  0.40556830  0.99671140     1.07200
C506        C  0.23890163  0.50764891  0.89456244     1.09800
C507        C  0.17045180  0.45397141  0.04660366     1.07300
C508        C  0.31689879  0.46067359  0.05303154     1.07700
C509        C  0.31874599  0.55746626  0.94490029     1.07300
C510        C  0.17239508  0.56102408  0.94656824     1.06800
C511        C  0.17129927  0.45604026  0.94717475     1.07300
C512        C  0.31748876  0.46156189  0.94378419     1.06800
H513        H  0.20333255  0.50830417  0.94029748     0.33500
O514        O  0.21568797  0.50839163  0.95712948    -1.29100
H515        H  0.28624971  0.45140714  0.99813304     0.33500
O516        O  0.27377440  0.46785255  0.99818110    -1.30500
C517        C  0.99863138  0.70414964  0.81030310     0.87100
C518        C  0.02185258  0.68426839  0.82229948    -0.53200
C519        C  0.02253339  0.68280979  0.85163741     0.10000
C520        C  0.99993508  0.70125402  0.86652538     0.20900
C521        C  0.97084402  0.69244229  0.82375255    -0.53900
C522        C  0.97116695  0.69064084  0.85318584     0.10100
C523        C  0.00461211  0.73283129  0.82515869    -0.53400
C524        C  0.00522245  0.73157313  0.85436676     0.10700
H525        H  0.03661956  0.67208807  0.80953578     0.15200
H526        H  0.00083532  0.70037330  0.89037292     0.00900
H527        H  0.95333629  0.68430795  0.81054552     0.15500
H528        H  0.00797399  0.75271202  0.81344244     0.15300
C529        C  0.98922098  0.31265941  0.81351949     0.87100
C530        C  0.96192350  0.32569834  0.82623304    -0.53200
C531        C  0.96393457  0.33277377  0.85473027     0.10000
C532        C  0.99260146  0.32403950  0.86848976     0.20900
C533        C  0.01328644  0.33407255  0.82154309    -0.53900
C534        C  0.01525100  0.33998789  0.85029941     0.10100
C535        C  0.99454678  0.28646226  0.83236517    -0.53400
C536        C  0.99652748  0.29229159  0.86098663     0.10700
H537        H  0.94258952  0.32954773  0.81420371     0.15200
H538        H  0.99444386  0.32812441  0.89190466     0.00900
H539        H  0.02740253  0.34376648  0.80564511     0.15500
H540        H  0.99718400  0.26508901  0.82374207     0.15300
C541        C  0.49358925  0.69824212  0.80195295     0.87100
C542        C  0.46717619  0.68581307  0.81776328    -0.53200
C543        C  0.46986277  0.65792246  0.82604102     0.10000
C544        C  0.49850113  0.64480920  0.81715701     0.20900
C545        C  0.51853937  0.69288239  0.82302047    -0.53900
C546        C  0.52131680  0.66485394  0.83072028     0.10100
C547        C  0.49835337  0.67766059  0.77681187    -0.53400
C548        C  0.50097157  0.64985843  0.78461534     0.10700
H549        H  0.44828460  0.69771655  0.82307388     0.15200
H550        H  0.50074024  0.62213505  0.82354653     0.00900
H551        H  0.53321753  0.70962709  0.83029943     0.15500
H552        H  0.49915454  0.68451471  0.75447586     0.15300
C553        C  0.49790044  0.70085729  0.18974331     0.87100
C554        C  0.52057511  0.68893858  0.16906344    -0.53200
C555        C  0.52109094  0.65970992  0.16829172     0.10000
C556        C  0.49899085  0.64502996  0.18804448     0.20900
C557        C  0.46987602  0.68673652  0.17901873    -0.53900
C558        C  0.47007400  0.65743864  0.17774326     0.10100
C559        C  0.50430417  0.68682984  0.21868190    -0.53400
C560        C  0.50528144  0.65786453  0.21794710     0.10700
H561        H  0.53465061  0.70187193  0.15569778     0.15200
H562        H  0.50004554  0.62140526  0.18818277     0.00900
H563        H  0.45235297  0.69934563  0.17081647     0.15500
H564        H  0.50827770  0.69899904  0.23825173     0.15300
C565        C  0.98997245  0.31449336  0.18435874     0.87100
C566        C  0.01748702  0.32770260  0.17137280    -0.53200
C567        C  0.01658929  0.33196911  0.14218097     0.10000
C568        C  0.98801478  0.32122031  0.12846395     0.20900
C569        C  0.96595497  0.33415612  0.17399202    -0.53900
C570        C  0.96473834  0.33782215  0.14475486     0.10100
C571        C  0.98555353  0.28673939  0.16758574    -0.53400
C572        C  0.98414005  0.28990007  0.13861442     0.10700
H573        H  0.03633108  0.33323916  0.18378437     0.15200
H574        H  0.98637329  0.32348962  0.10483214     0.00900
H575        H  0.95139424  0.34449652  0.18870686     0.15500
H576        H  0.98335032  0.26596637  0.17791217     0.15300
C577        C  0.99662324  0.71288544  0.17696541     0.87100
C578        C  0.97143264  0.69309797  0.16816995    -0.53200
C579        C  0.97082323  0.68627206  0.13964620     0.10000
C580        C  0.99537022  0.69972110  0.12221500     0.20900
C581        C  0.02346508  0.69718767  0.16643531    -0.53900
C582        C  0.02282598  0.68985247  0.13774478     0.10100
C583        C  0.99426614  0.73869477  0.15648351    -0.53400
C584        C  0.99310271  0.73173590  0.12812535     0.10700
H585        H  0.95526968  0.68539525  0.18317714     0.15200
H586        H  0.99433568  0.69485510  0.09889942     0.00900
H587        H  0.04070831  0.69126588  0.18085702     0.15500
H588        H  0.99273418  0.76079500  0.16280909     0.15300
C589        C  0.49120196  0.32483849  0.80116445     0.87100
C590        C  0.51745361  0.33805130  0.81678003    -0.53200
C591        C  0.51696057  0.36705710  0.81906025     0.10000
C592        C  0.49033171  0.38063835  0.80548766     0.20900
C593        C  0.46565196  0.33616701  0.81846604    -0.53900
C594        C  0.46518609  0.36539767  0.82072006     0.10100
C595        C  0.48983837  0.34054169  0.77225587    -0.53400
C596        C  0.48897743  0.36952464  0.77434825     0.10700
H597        H  0.53427806  0.32614564  0.82710909     0.15200
H598        H  0.49007719  0.40431180  0.80708289     0.00900
H599        H  0.44994613  0.32220879  0.82874006     0.15500
H600        H  0.48839710  0.32950492  0.75172008     0.15300
C601        C  0.49412781  0.32633816  0.19461617     0.87100
C602        C  0.46680054  0.33642309  0.17896271    -0.53200
C603        C  0.46638553  0.36512762  0.17403611     0.10000
C604        C  0.49277520  0.38146035  0.18539212     0.20900
C605        C  0.51879089  0.33789635  0.17572758    -0.53900
C606        C  0.51811880  0.36675643  0.17097297     0.10100
C607        C  0.49547054  0.34458821  0.22207797    -0.53400
C608        C  0.49460069  0.37333844  0.21734182     0.10700
H609        H  0.44970439  0.32275726  0.17091138     0.15200
H610        H  0.49208377  0.40485695  0.18144250     0.00900
H611        H  0.53538400  0.32441479  0.16707750     0.15500
H612        H  0.49606501  0.33543293  0.24355791     0.15300
O613        O  0.54241717  0.45080786  0.54253619    -0.85900
O614        O  0.46430034  0.50337058  0.40798723    -0.86100
O615        O  0.47920570  0.42610969  0.47059304    -0.87700
O616        O  0.55628419  0.47440052  0.44377284    -0.86500
O617        O  0.57091986  0.52123266  0.44871451    -0.86100
O618        O  0.44069069  0.43699701  0.49884490    -0.87500
O619        O  0.49249805  0.46504622  0.41911325    -0.85900
O620        O  0.53418279  0.43373688  0.49680767    -0.85500
Zr621      Zr  0.50945125  0.46932135  0.46838245     2.84300
O622        O  0.50897140  0.51606081  0.45053503    -1.07500
O623        O  0.49179437  0.46879513  0.51547580    -1.08200
C624        C  0.54340450  0.43126755  0.52289635     1.07200
C625        C  0.47669397  0.47960013  0.40181523     1.07100
C626        C  0.45524417  0.41980489  0.48317523     1.10100
C627        C  0.57404402  0.49561938  0.43935534     1.07900
H628        H  0.45014777  0.47464579  0.45640002     0.33500
O629        O  0.46242359  0.48648247  0.46837794    -1.28500
H630        H  0.55774173  0.49092565  0.49795892     0.33100
O631        O  0.53854460  0.49823674  0.49785514    -1.30100
O632        O  0.44000403  0.58066129  0.45492529    -0.85900
O633        O  0.51730714  0.52752421  0.58844885    -0.87400
O634        O  0.40165823  0.49063815  0.48698690    -0.86000
O635        O  0.53475895  0.56933265  0.43255715    -0.86000
O636        O  0.58129530  0.54227288  0.50885486    -0.85700
O637        O  0.44809955  0.46119011  0.56233587    -0.85500
O638        O  0.42589749  0.55692274  0.55145907    -0.85900
O639        O  0.50459565  0.60375977  0.52659188    -0.85400
O640        O  0.41144237  0.51021731  0.54548949    -0.86400
O641        O  0.54289163  0.59353703  0.49761499    -0.85600
O642        O  0.41185056  0.52106998  0.44945891    -0.86000
O643        O  0.49351846  0.46984161  0.57987584    -0.85700
O644        O  0.56963657  0.51520657  0.54850445    -0.85400
O645        O  0.48859817  0.56246907  0.41663441    -0.85800
O646        O  0.44600125  0.59624372  0.50154343    -0.86100
O647        O  0.48803137  0.56485548  0.57765772    -0.87400
Zr648      Zr  0.46237271  0.53360782  0.45112486     2.83100
Zr649      Zr  0.52043621  0.49799033  0.54495478     2.83500
Zr650      Zr  0.44516997  0.48577426  0.51562086     2.84100
Zr651      Zr  0.53786340  0.54511354  0.47973181     2.83400
Zr652      Zr  0.47327018  0.56148681  0.52763464     2.84200
O653        O  0.52031771  0.54473723  0.52705781    -1.08000
O654        O  0.44453122  0.53257974  0.49807631    -1.07500
C655        C  0.43724322  0.59909995  0.47544944     1.07200
C656        C  0.50364876  0.55040081  0.59522846     1.09800
C657        C  0.39464999  0.50534230  0.46458340     1.07300
C658        C  0.51432006  0.57249698  0.41391720     1.07700
C659        C  0.58721878  0.53038490  0.53320041     1.07300
C660        C  0.46784801  0.45942467  0.58185440     1.06800
C661        C  0.40807578  0.53564519  0.55528943     1.07300
C662        C  0.52860032  0.61011851  0.51420904     1.06800
H663        H  0.46593211  0.51483882  0.56441716     0.33500
O664        O  0.47361151  0.51489172  0.54517502    -1.29100
H665        H  0.49206177  0.58191626  0.47308893     0.33500
O666        O  0.49140434  0.56261066  0.48044798    -1.30500
O667        O  0.06104624  0.95675682  0.03602695    -0.85900
O668        O  0.00563294  0.04161366  0.90641318    -0.86100
O669        O  0.03660929  0.94742390  0.94046165    -0.87700
O670        O  0.08407377  0.02622604  0.96789273    -0.86500
O671        O  0.07332891  0.06315596  0.99840676    -0.86100
O672        O  0.98944715  0.93318663  0.94437160    -0.87500
O673        O  0.04474587  0.01368990  0.91544159    -0.85900
O674        O  0.07733827  0.96747623  0.99062655    -0.85500
Zr675      Zr  0.04166358  0.99482031  0.96441041     2.84300
O676        O  0.02418175  0.04152061  0.96761167    -1.07500
O677        O  0.01232409  0.96482229  0.99201379    -1.08200
C678        C  0.08023460  0.95644308  0.01596804     1.07200
C679        C  0.02934975  0.02975030  0.89903771     1.07100
C680        C  0.01535967  0.92962029  0.93593980     1.10100
C681        C  0.09019879  0.04968313  0.98151107     1.07900
H682        H  0.99425373  0.98984844  0.92734555     0.33500
O683        O  0.99453198  0.99638146  0.94703767    -1.28500
H684        H  0.06217346  0.01111726  0.01990235     0.33100
O685        O  0.04286792  0.01079688  0.01236055    -1.30100
O686        O  0.93017526  0.06619627  0.95719921    -0.85900
O687        O  0.98460798  0.97883106  0.08312893    -0.87400
O688        O  0.94086450  0.97296879  0.92786278    -0.86000
O689        O  0.02245704  0.10129776  0.98755314    -0.86000
O690        O  0.04842751  0.05224367  0.06261213    -0.85700
O691        O  0.96776090  0.92190249  0.00172144    -0.85500
O692        O  0.90710767  0.99761130  0.02345237    -0.85900
O693        O  0.95470107  0.07396816  0.05295168    -0.85400
O694        O  0.91579063  0.96229736  0.99055545    -0.86400
O695        O  0.00082767  0.09036864  0.04645185    -0.85600
O696        O  0.94745350  0.01987791  0.91504201    -0.86000
O697        O  0.99885951  0.93030753  0.03928593    -0.85700
O698        O  0.04090224  0.00566349  0.07677817    -0.85400
O699        O  0.99514515  0.09154687  0.94746643    -0.85800
O700        O  0.91564675  0.05718770  0.00351332    -0.86100
O701        O  0.94669112  0.00842567  0.07513526    -0.87400
Zr702      Zr  0.97701678  0.04294681  0.95059325     2.83100
Zr703      Zr  0.01423663  0.97996886  0.03991803     2.83500
Zr704      Zr  0.96508089  0.96657348  0.97474019     2.84100
Zr705      Zr  0.02504803  0.05714147  0.01550080     2.83400
Zr706      Zr  0.95020435  0.02779883  0.02688660     2.84200
O707        O  0.99710361  0.02654829  0.04388773    -1.08000
O708        O  0.94797151  0.01294846  0.97863742    -1.07500
C709        C  0.91227833  0.06822808  0.97841801     1.07200
C710        C  0.96121144  0.99103647  0.09079523     1.09800
C711        C  0.93757695  0.99447227  0.91060238     1.07300
C712        C  0.01086335  0.10817093  0.96328736     1.07700
C713        C  0.05017274  0.03144056  0.08085864     1.07300
C714        C  0.98243091  0.91395079  0.02386621     1.06800
C715        C  0.89955663  0.97546789  0.00843894     1.07300
C716        C  0.97532778  0.09262478  0.05654524     1.06800
H717        H  0.95501801  0.96817637  0.03445790     0.33500
O718        O  0.96690111  0.98100219  0.02305039    -1.29100
H719        H  0.97083665  0.07767408  0.99917790     0.33500
O720        O  0.97807536  0.05848749  0.99833812    -1.30500
C721        C  0.46710182  0.43103657  0.26672146    -0.27600
C722        C  0.48541684  0.42815300  0.29048815     0.06000
C723        C  0.50825570  0.40904001  0.28900320     0.25600
C724        C  0.51193970  0.39218279  0.26456021    -0.12100
C725        C  0.49291758  0.39410945  0.24123905    -0.26100
C726        C  0.47074537  0.41407230  0.24221682     0.36400
C727        C  0.47912321  0.44259223  0.31794203     0.06000
F728        F  0.52644043  0.40607795  0.31162949    -0.19900
H729        H  0.52919702  0.37700526  0.26412878     0.15800
F730        F  0.45136637  0.41565708  0.22046394    -0.23600
H731        H  0.44917524  0.44538488  0.26773456     0.17600
C732        C  0.48219867  0.47236420  0.32111350     0.25600
C733        C  0.47933099  0.48489373  0.34835695    -0.12100
C734        C  0.47343218  0.46780250  0.37256000    -0.26100
C735        C  0.46853637  0.43829898  0.36888368     0.36500
C736        C  0.47144876  0.42587065  0.34181629    -0.27800
F737        F  0.48966102  0.48898537  0.29831324    -0.19900
H738        H  0.48340899  0.50762024  0.35083911     0.15800
F739        F  0.46174593  0.42136479  0.39168475    -0.23600
H740        H  0.46853091  0.40295625  0.33958107     0.17600
C741        C  0.49697618  0.39942197  0.69941526    -0.27600
C742        C  0.47002639  0.41146777  0.69464945     0.06000
C743        C  0.45031759  0.41226069  0.71747744     0.25600
C744        C  0.45729708  0.40023505  0.74426679    -0.12100
C745        C  0.48392644  0.38730803  0.74852695    -0.26100
C746        C  0.50388105  0.38744255  0.72604615     0.36400
C747        C  0.46312483  0.42278185  0.66561427     0.06000
F748        F  0.42390270  0.42327439  0.71341137    -0.19900
H749        H  0.44142759  0.39972785  0.76121812     0.15800
F750        F  0.52981374  0.37526362  0.72969545    -0.23600
H751        H  0.51260052  0.39896271  0.68225554     0.17600
C752        C  0.45737619  0.45189618  0.66150085     0.25600
C753        C  0.45658554  0.46331248  0.63364769    -0.12100
C754        C  0.46088697  0.44581926  0.60955775    -0.26100
C755        C  0.46437487  0.41637755  0.61350131     0.36500
C756        C  0.46566686  0.40500563  0.64136926    -0.27800
F757        F  0.45488226  0.46969865  0.68436711    -0.19900
H758        H  0.45428254  0.48616391  0.63091828     0.15800
F759        F  0.46853720  0.39903593  0.59054932    -0.23600
H760        H  0.46993321  0.38248338  0.64410696     0.17600
C761        C  0.00490083  0.84316819  0.05395826    -0.27600
C762        C  0.97931678  0.82713694  0.05311155     0.06000
C763        C  0.95466067  0.83929541  0.04098261     0.25600
C764        C  0.95575321  0.86736958  0.03037721    -0.12100
C765        C  0.98125536  0.88363645  0.03233912    -0.26100
C766        C  0.00595476  0.87101436  0.04367283     0.36400
C767        C  0.97861561  0.79912970  0.06780265     0.06000
F768        F  0.92960766  0.82420831  0.03972192    -0.19900
H769        H  0.93652838  0.87670082  0.02159765     0.15800
F770        F  0.03123636  0.88569478  0.04498907    -0.23600
H771        H  0.02401254  0.83442053  0.06359457     0.17600
C772        C  0.00018854  0.77909583  0.06269311     0.25600
C773        C  0.00400655  0.75618572  0.08158506    -0.12100
C774        C  0.98651961  0.75319408  0.10583703    -0.26100
C775        C  0.96354387  0.77189304  0.10965338     0.36500
C776        C  0.95963252  0.79464880  0.09071431    -0.27800
F777        F  0.01847269  0.78263966  0.04028078    -0.19900
H778        H  0.02154773  0.74173390  0.07816892     0.15800
F779        F  0.94549491  0.76871846  0.13231668    -0.23600
H780        H  0.94298406  0.80986770  0.09511572     0.17600
C781        C  0.98965043  0.15807614  0.10196951    -0.27600
C782        C  0.97029241  0.17754413  0.09018361     0.06000
C783        C  0.94978398  0.16756142  0.07013756     0.25600
C784        C  0.94967438  0.13888989  0.06106412    -0.12100
C785        C  0.96996709  0.11976964  0.07188123    -0.26100
C786        C  0.98946957  0.12948601  0.09302999     0.36400
C787        C  0.97208838  0.20818549  0.09872544     0.06000
F788        F  0.93104096  0.18593652  0.05806439    -0.19900
H789        H  0.93497117  0.13210761  0.04422310     0.15800
F790        F  0.00904695  0.11146105  0.10430298    -0.23600
H791        H  0.00531161  0.16520584  0.11777351     0.17600
C792        C  0.94961304  0.22087205  0.11382760     0.25600
C793        C  0.95279541  0.24871878  0.12455097    -0.12100
C794        C  0.97835104  0.26447696  0.12035952    -0.26100
C795        C  0.00040513  0.25229015  0.10431805     0.36500
C796        C  0.99727903  0.22433894  0.09362880    -0.27800
F797        F  0.92545529  0.20560023  0.12005277    -0.19900
H798        H  0.93591049  0.25744901  0.13765733     0.15800
F799        F  0.02578810  0.26645566  0.10111747    -0.23600
H800        H  0.01493634  0.21487065  0.08222384     0.17600
C801        C  0.54184277  0.63688185  0.28752210    -0.27600
C802        C  0.52151828  0.61771077  0.29906025     0.06000
C803        C  0.49808887  0.60882687  0.28191267     0.25600
C804        C  0.49405736  0.62036448  0.25444317    -0.12100
C805        C  0.51305604  0.64124632  0.24388065    -0.26100
C806        C  0.53765212  0.64864851  0.26011296     0.36400
C807        C  0.52275589  0.60926396  0.32980321     0.06000
F808        F  0.47843349  0.58983297  0.29231450    -0.19900
H809        H  0.47513444  0.61432694  0.24218147     0.15800
F810        F  0.55706475  0.66798436  0.24980571    -0.23600
H811        H  0.56011622  0.64382803  0.30029681     0.17600
C812        C  0.54510378  0.59275785  0.34103984     0.25600
C813        C  0.54366753  0.58242665  0.36948125    -0.12100
C814        C  0.51984926  0.58837535  0.38682577    -0.26100
C815        C  0.49848678  0.60630193  0.37589392     0.36500
C816        C  0.50004154  0.61664958  0.34779475    -0.27800
F817        F  0.56718438  0.58506808  0.32395329    -0.19900
H818        H  0.56014769  0.56833491  0.37727200     0.15800
F819        F  0.47536751  0.61286622  0.39209098    -0.23600
H820        H  0.48286546  0.62971449  0.33965651     0.17600
C821        C  0.53054304  0.60685187  0.72304857    -0.27600
C822        C  0.50540727  0.59377229  0.71231982     0.06000
C823        C  0.47986114  0.59607997  0.72811315     0.25600
C824        C  0.47918509  0.61262357  0.75314717    -0.12100
C825        C  0.50382897  0.62722349  0.76273220    -0.26100
C826        C  0.52973194  0.62377211  0.74791105     0.36400
C827        C  0.50495916  0.58159521  0.68282389     0.06000
F828        F  0.45519190  0.58364508  0.71841616    -0.19900
H829        H  0.45896943  0.61554724  0.76402314     0.15800
F830        F  0.55377367  0.63813234  0.75648753    -0.23600
H831        H  0.55034091  0.60557775  0.71107801     0.17600
C832        C  0.48684739  0.59338338  0.66196630     0.25600
C833        C  0.48680271  0.58312387  0.63383950    -0.12100
C834        C  0.50495414  0.56089788  0.62549904    -0.26100
C835        C  0.52336242  0.54913762  0.64640031     0.36500
C836        C  0.52340933  0.55957643  0.67477423    -0.27800
F837        F  0.46976256  0.61561337  0.66857199    -0.19900
H838        H  0.47238327  0.59284289  0.61853593     0.15800
F839        F  0.54150948  0.52787853  0.63947407    -0.23600
H840        H  0.53780889  0.55046921  0.69049116     0.17600
C841        C  0.02082527  0.16920616  0.91150538    -0.27600
C842        C  0.01778197  0.19304446  0.92947306     0.06000
C843        C  0.01479211  0.18883689  0.95933020     0.25600
C844        C  0.01376639  0.16107090  0.97066709    -0.12100
C845        C  0.01559671  0.13733582  0.95233173    -0.26100
C846        C  0.01994909  0.14166229  0.92276214     0.36400
C847        C  0.01541477  0.22163605  0.91608064     0.06000
F848        F  0.01260038  0.21146387  0.97739456    -0.19900
H849        H  0.01049580  0.15808192  0.99354927     0.15800
F850        F  0.02310255  0.11916836  0.90465949    -0.23600
H851        H  0.02290947  0.17185473  0.88844802     0.17600
C852        C  0.03490774  0.23043532  0.89469477     0.25600
C853        C  0.02926733  0.25436929  0.87779510    -0.12100
C854        C  0.00420678  0.26994577  0.88195494    -0.26100
C855        C  0.98544988  0.26213327  0.90420989     0.36500
C856        C  0.99111824  0.23818477  0.92125785    -0.27800
F857        F  0.05871204  0.21508061  0.88927256    -0.19900
H858        H  0.04395889  0.26019031  0.86068959     0.15800
F859        F  0.96049703  0.27610012  0.90778609    -0.23600
H860        H  0.97550536  0.23142188  0.93715081     0.17600
C861        C  0.99136724  0.79777076  0.89825401    -0.27600
C862        C  0.01688750  0.81367705  0.89403566     0.06000
C863        C  0.03968475  0.80081320  0.87957050     0.25600
C864        C  0.03640555  0.77317439  0.86829531    -0.12100
C865        C  0.01052469  0.75777069  0.87158607    -0.26100
C866        C  0.98819752  0.77002390  0.88715720     0.36400
C867        C  0.01870309  0.84429552  0.90266902     0.06000
F868        F  0.06435285  0.81572240  0.87458186    -0.19900
H869        H  0.05364487  0.76421196  0.85584796     0.15800
F870        F  0.96263178  0.75602374  0.88968970    -0.23600
H871        H  0.97351661  0.80727042  0.90932493     0.17600
C872        C  0.99839263  0.86364201  0.89234314     0.25600
C873        C  0.99910166  0.89212376  0.90143328    -0.12100
C874        C  0.02001994  0.90206713  0.92103832    -0.26100
C875        C  0.04109724  0.88304965  0.93050296     0.36500
C876        C  0.04046678  0.85441902  0.92125976    -0.27800
F877        F  0.97754696  0.85486351  0.87374769    -0.19900
H878        H  0.98244773  0.90625603  0.89406557     0.15800
F879        F  0.06084360  0.89149541  0.95037790    -0.23600
H880        H  0.05628745  0.83984547  0.92952220     0.17600
C881        C  0.13066080  0.39646668  0.90886287    -0.27600
C882        C  0.10433466  0.40948082  0.90317910     0.06000
C883        C  0.10033403  0.43787695  0.91189686     0.25600
C884        C  0.12224908  0.45283403  0.92612654    -0.12100
C885        C  0.14861871  0.43988361  0.93173603    -0.26100
C886        C  0.15271740  0.41151957  0.92284610     0.36400
C887        C  0.08110634  0.39315981  0.88853448     0.06000
F888        F  0.07546706  0.45138410  0.90612418    -0.19900
H889        H  0.11868347  0.47475515  0.93247883     0.15800
F890        F  0.17765583  0.39803523  0.92841107    -0.23600
H891        H  0.13401060  0.37443016  0.90280340     0.17600
C892        C  0.08661304  0.37761449  0.86335920     0.25600
C893        C  0.06507923  0.36066159  0.85084237    -0.12100
C894        C  0.03744154  0.35947972  0.86273331    -0.26100
C895        C  0.03150670  0.37650749  0.88687746     0.36500
C896        C  0.05330052  0.39271929  0.89992106    -0.27800
F897        F  0.11275733  0.37904641  0.85071046    -0.19900
H898        H  0.07026649  0.34805417  0.83211066     0.15800
F899        F  0.00457111  0.37817245  0.89752393    -0.23600
H900        H  0.04846249  0.40478245  0.91912813     0.17600
C901        C  0.06686308  0.36096384  0.08338652    -0.27600
C902        C  0.08329895  0.38111628  0.09886049     0.06000
C903        C  0.07821365  0.38471148  0.12825758     0.25600
C904        C  0.05663010  0.36882128  0.14188965    -0.12100
C905        C  0.03993513  0.34828798  0.12673940    -0.26100
C906        C  0.04555980  0.34444664  0.09716440     0.36400
C907        C  0.10542983  0.39896600  0.08449579     0.06000
F908        F  0.09373654  0.40420280  0.14365586    -0.19900
H909        H  0.05269523  0.37333851  0.16432566     0.15800
F910        F  0.03112199  0.32443443  0.08152983    -0.23600
H911        H  0.07072082  0.35787261  0.06064171     0.17600
C912        C  0.13458269  0.39332056  0.08838650     0.25600
C913        C  0.15547801  0.41145163  0.07638146    -0.12100
C914        C  0.14776022  0.43569729  0.06027500    -0.26100
C915        C  0.11830535  0.44142666  0.05679915     0.36500
C916        C  0.09747251  0.42308508  0.06869368    -0.27800
F917        F  0.14281546  0.37017264  0.10375264    -0.19900
H918        H  0.17777822  0.40629267  0.07960253     0.15800
F919        F  0.10944228  0.46482420  0.04220590    -0.23600
H920        H  0.07502758  0.42798064  0.06600974     0.17600
C921        C  0.05882950  0.63489879  0.08950870    -0.27600
C922        C  0.08743307  0.63642872  0.09885959     0.06000
C923        C  0.09483510  0.65623077  0.12059546     0.25600
C924        C  0.07396536  0.67371375  0.13276990    -0.12100
C925        C  0.04517758  0.67189955  0.12371465    -0.26100
C926        C  0.03792076  0.65212261  0.10179784     0.36400
C927        C  0.10924592  0.61736060  0.08583456     0.06000
F928        F  0.12210812  0.65816786  0.13069481    -0.19900
H929        H  0.08043490  0.68871721  0.14937540     0.15800
F930        F  0.01045786  0.64824658  0.09286857    -0.23600
H931        H  0.05253364  0.62015662  0.07258813     0.17600
C932        C  0.10362008  0.58789462  0.08186102     0.25600
C933        C  0.12404460  0.57039059  0.06900785    -0.12100
C934        C  0.15069905  0.58169621  0.06034627    -0.26100
C935        C  0.15640955  0.61107849  0.06446963     0.36500
C936        C  0.13582412  0.62865004  0.07683857    -0.27800
F937        F  0.07865091  0.57582085  0.09104977    -0.19900
H938        H  0.11921739  0.54782600  0.06630206     0.15800
F939        F  0.18158896  0.62306189  0.05570834    -0.23600
H940        H  0.14055261  0.65128196  0.07900936     0.17600
C941        C  0.06481170  0.61818925  0.87423528    -0.27600
C942        C  0.08484127  0.63033846  0.89339959     0.06000
C943        C  0.08353168  0.65972506  0.89966184     0.25600
C944        C  0.06255761  0.67659499  0.88673730    -0.12100
C945        C  0.04302803  0.66449754  0.86706952    -0.26100
C946        C  0.04419077  0.63511165  0.86099661     0.36400
C947        C  0.10716469  0.61222727  0.90643135     0.06000
F948        F  0.10235134  0.67200746  0.91843818    -0.19900
H949        H  0.06198720  0.69923940  0.89150246     0.15800
F950        F  0.02526652  0.62277236  0.84235280    -0.23600
H951        H  0.06549316  0.59562181  0.86915624     0.17600
C952        C  0.09960448  0.58840056  0.92331970     0.25600
C953        C  0.12083516  0.57163013  0.93583821    -0.12100
C954        C  0.15010764  0.57799182  0.93146637    -0.26100
C955        C  0.15751735  0.60126842  0.91340944     0.36500
C956        C  0.13621324  0.61831869  0.90138996    -0.27800
F957        F  0.07164570  0.58177388  0.92829716    -0.19900
H958        H  0.11423746  0.55377284  0.94923029     0.15800
F959        F  0.18528234  0.60785668  0.90742628    -0.23600
H960        H  0.14239389  0.63623691  0.88786821     0.17600
C961        C  0.38782501  0.43124047  0.91798606    -0.27600
C962        C  0.38163806  0.42527960  0.88895588     0.06000
C963        C  0.35432884  0.43184592  0.87808554     0.25600
C964        C  0.33353107  0.44315517  0.89616899    -0.12100
C965        C  0.33969237  0.44895466  0.92523231    -0.26100
C966        C  0.36725442  0.44324119  0.93589092     0.36400
C967        C  0.40311083  0.41082650  0.87068605     0.06000
F968        F  0.34785289  0.42782785  0.84985371    -0.19900
H969        H  0.31268677  0.44792032  0.88723661     0.15800
F970        F  0.37409911  0.44836090  0.96384381    -0.23600
H971        H  0.40843277  0.42593667  0.92710092     0.17600
C972        C  0.43224016  0.41919013  0.87116069     0.25600
C973        C  0.45222375  0.40431217  0.85486466    -0.12100
C974        C  0.44361116  0.38099664  0.83767580    -0.26100
C975        C  0.41450471  0.37295829  0.83680218     0.36500
C976        C  0.39458543  0.38758806  0.85331385    -0.27800
F977        F  0.44139753  0.44190914  0.88707710    -0.19900
H978        H  0.47456374  0.41083799  0.85600790     0.15800
F979        F  0.40515525  0.35132930  0.81955606    -0.23600
H980        H  0.37243620  0.38038229  0.85281957     0.17600
C981        C  0.39072763  0.57547334  0.91120676    -0.27600
C982        C  0.38471681  0.60109333  0.89689312     0.06000
C983        C  0.35681117  0.61181827  0.89781276     0.25600
C984        C  0.33545999  0.59734542  0.91320385    -0.12100
C985        C  0.34148031  0.57192646  0.92795591    -0.26100
C986        C  0.36937922  0.56090264  0.92656109     0.36400
C987        C  0.40722390  0.61559631  0.87972389     0.06000
F988        F  0.34994489  0.63583826  0.88312743    -0.19900
H989        H  0.31419028  0.60620468  0.91370777     0.15800
F990        F  0.37596885  0.53576854  0.93941291    -0.23600
H991        H  0.41203171  0.56669680  0.91039822     0.17600
C992        C  0.41358504  0.64481496  0.88341391     0.25600
C993        C  0.43414581  0.65827139  0.86611298    -0.12100
C994        C  0.44842935  0.64300820  0.84454086    -0.26100
C995        C  0.44226302  0.61365691  0.84121045     0.36500
C996        C  0.42203101  0.60012568  0.85883946    -0.27800
F997        F  0.40015810  0.66027977  0.90390273    -0.19900
H998        H  0.43900044  0.68068449  0.86977065     0.15800
F999        F  0.45469033  0.59819349  0.82014537    -0.23600
H1000       H  0.41722332  0.57763164  0.85555768     0.17600
C1001       C  0.35368538  0.59628529  0.11765304    -0.27600
C1002       C  0.38176954  0.60081616  0.10772650     0.06000
C1003       C  0.38852528  0.59163848  0.07966676     0.25600
C1004       C  0.36770349  0.57802473  0.06232453    -0.12100
C1005       C  0.33954691  0.57357708  0.07227893    -0.26100
C1006       C  0.33280230  0.58308809  0.10024452     0.36400
C1007       C  0.40384432  0.61451420  0.12694855     0.06000
F1008       F  0.41510380  0.59632276  0.06870991    -0.19900
H1009       H  0.37357401  0.57125286  0.04089351     0.15800
F1010       F  0.30619899  0.57892450  0.11130439    -0.23600
H1011       H  0.34793052  0.60248411  0.13928870     0.17600
C1012       C  0.39772037  0.63898316  0.14331528     0.25600
C1013       C  0.41874804  0.65162626  0.16100089    -0.12100
C1014       C  0.44674598  0.64081619  0.16239238    -0.26100
C1015       C  0.45252656  0.61582511  0.14655591     0.36500
C1016       C  0.43127858  0.60286639  0.12936597    -0.27800
F1017       F  0.37173510  0.65144462  0.14144142    -0.19900
H1018       H  0.41309652  0.67039618  0.17317774     0.15800
F1019       F  0.47897626  0.60439467  0.14621847    -0.23600
H1020       H  0.43647033  0.58367993  0.11761377     0.17600
C1021       C  0.38461978  0.44712523  0.09543196    -0.27600
C1022       C  0.38085770  0.41818943  0.10291217     0.06000
C1023       C  0.35573940  0.40358879  0.09406874     0.25600
C1024       C  0.33484529  0.41777017  0.07829552    -0.12100
C1025       C  0.33882453  0.44650746  0.07051406    -0.26100
C1026       C  0.36393726  0.46117391  0.07919828     0.36400
C1027       C  0.40278021  0.40377227  0.12063225     0.06000
F1028       F  0.35165610  0.37542079  0.10000366    -0.19900
H1029       H  0.31577375  0.40605223  0.07154212     0.15800
F1030       F  0.36810938  0.48925720  0.07277958    -0.23600
H1031       H  0.40341814  0.45903890  0.10257416     0.17600
C1032       C  0.43213811  0.40725872  0.11450443     0.25600
C1033       C  0.45262540  0.39518576  0.13250039    -0.12100
C1034       C  0.44423813  0.37864158  0.15623568    -0.26100
C1035       C  0.41499434  0.37435655  0.16198839     0.36500
C1036       C  0.39446826  0.38714571  0.14450104    -0.27800
F1037       F  0.44102470  0.42166178  0.09070644    -0.19900
H1038       H  0.47511933  0.39809399  0.12743684     0.15800
F1039       F  0.40632551  0.35849937  0.18492671    -0.23600
H1040       H  0.37205845  0.38446489  0.14995005     0.17600
C1041       C  0.59807803  0.45130006  0.08744672    -0.27600
C1042       C  0.60343233  0.42644471  0.10322673     0.06000
C1043       C  0.63056669  0.41413446  0.10198757     0.25600
C1044       C  0.65204342  0.42634113  0.08484531    -0.12100
C1045       C  0.64668455  0.45089255  0.06835541    -0.26100
C1046       C  0.61943142  0.46345438  0.07004674     0.36400
C1047       C  0.58040481  0.41238186  0.11991394     0.06000
F1048       F  0.63618091  0.39021035  0.11738763    -0.19900
H1049       H  0.67276353  0.41631266  0.08419146     0.15800
F1050       F  0.61345025  0.48767897  0.05524539    -0.23600
H1051       H  0.57720519  0.46101840  0.08828172     0.17600
C1052       C  0.57151007  0.42349123  0.14640279     0.25600
C1053       C  0.55098600  0.40866191  0.16277307    -0.12100
C1054       C  0.53932973  0.38250166  0.15304753    -0.26100
C1055       C  0.54780455  0.37185047  0.12614426     0.36500
C1056       C  0.56823682  0.38669989  0.10981111    -0.27800
F1057       F  0.58339685  0.44806630  0.15683536    -0.19900
H1058       H  0.54473333  0.41723005  0.18342150     0.15800
F1059       F  0.53597617  0.34740522  0.11537812    -0.23600
H1060       H  0.57478416  0.37806517  0.08928131     0.17600
C1061       C  0.56313636  0.63626824  0.10328576    -0.27600
C1062       C  0.58182682  0.61640030  0.11554923     0.06000
C1063       C  0.57919837  0.60976617  0.14502610     0.25600
C1064       C  0.55871252  0.62327582  0.16187529    -0.12100
C1065       C  0.54088515  0.64385286  0.14975444    -0.26100
C1066       C  0.54275866  0.64983658  0.12019673     0.36400
C1067       C  0.60450220  0.60332735  0.09780805     0.06000
F1068       F  0.59646994  0.59027344  0.15756055    -0.19900
H1069       H  0.55732623  0.61830008  0.18460729     0.15800
F1070       F  0.52473709  0.66865707  0.10768558    -0.23600
H1071       H  0.56474905  0.64179561  0.08071294     0.17600
C1072       C  0.59822817  0.59108530  0.07082030     0.25600
C1073       C  0.61981973  0.57818406  0.05485397    -0.12100
C1074       C  0.64818121  0.57759641  0.06520760    -0.26100
C1075       C  0.65450549  0.59065870  0.09187071     0.36500
C1076       C  0.63286075  0.60325181  0.10790152    -0.27800
F1077       F  0.57112034  0.59096311  0.06015999    -0.19900
H1078       H  0.61425969  0.56859032  0.03433484     0.15800
F1079       F  0.68145665  0.59082935  0.10290863    -0.23600
H1080       H  0.63833695  0.61313035  0.12830676     0.17600
C1081       C  0.60188776  0.58828578  0.91321576    -0.27600
C1082       C  0.60860707  0.61552990  0.90236654     0.06000
C1083       C  0.63590809  0.62753822  0.90744629     0.25600
C1084       C  0.65655968  0.61175159  0.92208113    -0.12100
C1085       C  0.65005167  0.58409605  0.93231870    -0.26100
C1086       C  0.62230267  0.57267234  0.92808991     0.36400
C1087       C  0.58772884  0.62971563  0.88352646     0.06000
F1088       F  0.64299049  0.65385184  0.89711142    -0.19900
H1089       H  0.67775132  0.62098004  0.92501486     0.15800
F1090       F  0.61526720  0.54581819  0.93695555    -0.23600
H1091       H  0.58090583  0.57875904  0.90941836     0.17600
C1092       C  0.57797175  0.61564070  0.85862932     0.25600
C1093       C  0.55705923  0.62781258  0.84140429    -0.12100
C1094       C  0.54490747  0.65395184  0.84888395    -0.26100
C1095       C  0.55487775  0.66836874  0.87373190     0.36500
C1096       C  0.57642962  0.65635783  0.89076233    -0.27800
F1097       F  0.58863243  0.58992574  0.85102129    -0.19900
H1098       H  0.55028895  0.61658885  0.82211502     0.15800
F1099       F  0.54293537  0.69316445  0.88235810    -0.23600
H1100       H  0.58356021  0.66728315  0.91011385     0.17600
C1101       C  0.56119982  0.39074497  0.88334053    -0.27600
C1102       C  0.58146061  0.40920568  0.87054602     0.06000
C1103       C  0.57981500  0.41439642  0.84074194     0.25600
C1104       C  0.55808829  0.40145467  0.82415867    -0.12100
C1105       C  0.53817210  0.38275304  0.83695566    -0.26100
C1106       C  0.53983593  0.37744715  0.86669970     0.36400
C1107       C  0.60408909  0.42299536  0.88849985     0.06000
F1108       F  0.59902933  0.43219563  0.82776042    -0.19900
H1109       H  0.55718519  0.40547911  0.80121981     0.15800
F1110       F  0.52078732  0.35937154  0.87960811    -0.23600
H1111       H  0.56220532  0.38634188  0.90620856     0.17600
C1112       C  0.59681828  0.44005284  0.91213065     0.25600
C1113       C  0.61823093  0.45277662  0.92922840    -0.12100
C1114       C  0.64743978  0.44883662  0.92314700    -0.26100
C1115       C  0.65458955  0.43164049  0.89927935     0.36500
C1116       C  0.63308702  0.41894001  0.88225315    -0.27800
F1117       F  0.56893057  0.44502762  0.91819955    -0.19900
H1118       H  0.61182348  0.46593492  0.94716465     0.15800
F1119       F  0.68229175  0.42723154  0.89200977    -0.23600
H1120       H  0.63909398  0.40574440  0.86417942     0.17600
C1121       C  0.85288385  0.39731230  0.08194652    -0.27600
C1122       C  0.87970266  0.40928606  0.08934154     0.06000
C1123       C  0.88566518  0.43795503  0.08178502     0.25600
C1124       C  0.86493389  0.45428022  0.06775100    -0.12100
C1125       C  0.83792606  0.44235967  0.06086414    -0.26100
C1126       C  0.83233421  0.41349066  0.06762304     0.36400
C1127       C  0.90152182  0.39138288  0.10395164     0.06000
F1128       F  0.91132443  0.45037644  0.08841743    -0.19900
H1129       H  0.86990656  0.47638173  0.06255845     0.15800
F1130       F  0.80744876  0.40050868  0.05927181    -0.23600
H1131       H  0.84808676  0.37506981  0.08661209     0.17600
C1132       C  0.89440817  0.37467734  0.12819939     0.25600
C1133       C  0.91490479  0.35724786  0.14112589    -0.12100
C1134       C  0.94303761  0.35624782  0.13044356    -0.26100
C1135       C  0.95022165  0.37332084  0.10646411     0.36500
C1136       C  0.92960725  0.39042897  0.09329816    -0.27800
F1137       F  0.86780298  0.37564141  0.13981228    -0.19900
H1138       H  0.90866417  0.34438564  0.15951113     0.15800
F1139       F  0.97740162  0.37442402  0.09628434    -0.23600
H1140       H  0.93563058  0.40292618  0.07458882     0.17600
C1141       C  0.90857793  0.39035831  0.86740963    -0.27600
C1142       C  0.90330800  0.38780856  0.89700013     0.06000
C1143       C  0.91841368  0.36715674  0.91279142     0.25600
C1144       C  0.93784177  0.34922085  0.89897573    -0.12100
C1145       C  0.94264975  0.35142530  0.86921117    -0.26100
C1146       C  0.92800063  0.37268417  0.85365918     0.36400
C1147       C  0.88121705  0.40613909  0.91045472     0.06000
F1148       F  0.91373767  0.36353789  0.94136153    -0.19900
H1149       H  0.94875886  0.33328182  0.91159525     0.15800
F1150       F  0.93306786  0.37742179  0.82530499    -0.23600
H1151       H  0.89779244  0.40645469  0.85481583     0.17600
C1152       C  0.88625781  0.42074958  0.93651875     0.25600
C1153       C  0.86515536  0.43821165  0.94817894    -0.12100
C1154       C  0.83862888  0.44160975  0.93415790    -0.26100
C1155       C  0.83373115  0.42717730  0.90800800     0.36500
C1156       C  0.85477536  0.40972599  0.89640350    -0.27800
F1157       F  0.91179775  0.41888769  0.95036910    -0.19900
H1158       H  0.86956141  0.44896842  0.96838812     0.15800
F1159       F  0.80879689  0.43023079  0.89331359    -0.23600
H1160       H  0.85027248  0.39877850  0.87632384     0.17600
C1161       C  0.88897414  0.59454942  0.91860736    -0.27600
C1162       C  0.88278268  0.62298166  0.91131417     0.06000
C1163       C  0.85491933  0.63291554  0.91630380     0.25600
C1164       C  0.83383044  0.61468425  0.92778965    -0.12100
C1165       C  0.84006178  0.58630919  0.93517005    -0.26100
C1166       C  0.86802863  0.57648043  0.93070387     0.36400
C1167       C  0.90512251  0.64177444  0.89776028     0.06000
F1168       F  0.84818379  0.66049275  0.91080768    -0.19900
H1169       H  0.81267399  0.62304814  0.93151838     0.15800
F1170       F  0.87505140  0.54924868  0.93745813    -0.23600
H1171       H  0.91002578  0.58611462  0.91455969     0.17600
C1172       C  0.93344165  0.64292059  0.90830872     0.25600
C1173       C  0.95451502  0.65937243  0.89422016    -0.12100
C1174       C  0.94782953  0.67554509  0.86962853    -0.26100
C1175       C  0.91911635  0.67536967  0.85993596     0.36500
C1176       C  0.89829699  0.65835238  0.87356269    -0.27800
F1177       F  0.94077072  0.62828331  0.93238514    -0.19900
H1178       H  0.97626918  0.65874233  0.90225020     0.15800
F1179       F  0.91085425  0.69180227  0.83742507    -0.23600
H1180       H  0.87676806  0.65786380  0.86481925     0.17600
C1181       C  0.88847236  0.58648760  0.08052743    -0.27600
C1182       C  0.88266855  0.61425934  0.08991894     0.06000
C1183       C  0.85478408  0.62471244  0.08734705     0.25600
C1184       C  0.83320869  0.60786136  0.07486048    -0.12100
C1185       C  0.83907964  0.58033457  0.06461724    -0.26100
C1186       C  0.86687523  0.56953056  0.06807600     0.36400
C1187       C  0.90570158  0.63233536  0.10237110     0.06000
F1188       F  0.84838607  0.65116734  0.09712438    -0.19900
H1189       H  0.81201499  0.61667513  0.07263096     0.15800
F1190       F  0.87315396  0.54255127  0.05974437    -0.23600
H1191       H  0.90985132  0.57806609  0.08257682     0.17600
C1192       C  0.92122422  0.62309988  0.12648889     0.25600
C1193       C  0.94232871  0.64084364  0.13867066    -0.12100
C1194       C  0.94840756  0.66779726  0.12673616    -0.26100
C1195       C  0.93304377  0.67696080  0.10250569     0.36500
C1196       C  0.91179994  0.65931896  0.09046275    -0.27800
F1197       F  0.91541451  0.59728479  0.13867171    -0.19900
H1198       H  0.95406893  0.63351619  0.15734177     0.15800
F1199       F  0.93783839  0.70333128  0.09114605    -0.23600
H1200       H  0.89998828  0.66673147  0.07186958     0.17600
C1201       C  0.09640185  0.05110021  0.77439566    -0.27600
C1202       C  0.07644752  0.03079083  0.78467870     0.06000
C1203       C  0.07232344  0.00504715  0.76934147     0.25600
C1204       C  0.08914044  0.99918788  0.74521617    -0.12100
C1205       C  0.11054176  0.01860948  0.73654591    -0.26100
C1206       C  0.11355846  0.04496636  0.75073625     0.36400
C1207       C  0.06325573  0.03474892  0.81339280     0.06000
F1208       F  0.05369825  0.98465133  0.77895934    -0.19900
H1209       H  0.08660694  0.97883303  0.73432635     0.15800
F1210       F  0.13371954  0.06439516  0.74217985    -0.23600
H1211       H  0.09964904  0.07119469  0.78559364     0.17600
C1212       C  0.08089726  0.03995973  0.83749837     0.25600
C1213       C  0.06943465  0.03917701  0.86517590    -0.12100
C1214       C  0.04002645  0.03440704  0.86943065    -0.26100
C1215       C  0.02188724  0.03179214  0.84524808     0.36500
C1216       C  0.03356979  0.03131156  0.81744941    -0.27800
F1217       F  0.10955148  0.04425658  0.83444764    -0.19900
H1218       H  0.08370305  0.04178582  0.88345760     0.15800
F1219       F  0.99317325  0.02823032  0.84851885    -0.23600
H1220       H  0.01954266  0.02780945  0.79912716     0.17600
C1221       C  0.10932149  0.00163718  0.20065218    -0.27600
C1222       C  0.09418966  0.02685660  0.19582392     0.06000
C1223       C  0.08982090  0.04558543  0.21903112     0.25600
C1224       C  0.10185848  0.03979500  0.24619934    -0.12100
C1225       C  0.11825477  0.01520672  0.25052386    -0.26100
C1226       C  0.12118557  0.99582390  0.22768096     0.36400
C1227       C  0.08322000  0.03317010  0.16645736     0.06000
F1228       F  0.07530117  0.07015875  0.21495423    -0.19900
H1229       H  0.09972582  0.05524108  0.26337818     0.15800
F1230       F  0.13640850  0.97163940  0.23135217    -0.23600
H1231       H  0.11237939  0.98663060  0.18323693     0.17600
C1232       C  0.10209813  0.03584550  0.14294162     0.25600
C1233       C  0.09140561  0.03787456  0.11475989    -0.12100
C1234       C  0.06180779  0.03711605  0.10976014    -0.26100
C1235       C  0.04299053  0.03603711  0.13327551     0.36500
C1236       C  0.05362336  0.03420076  0.16139669    -0.27800
F1237       F  0.13085173  0.03547729  0.14719831    -0.19900
H1238       H  0.10615908  0.03834162  0.09682314     0.15800
F1239       F  0.01423414  0.03517724  0.12878874    -0.23600
H1240       H  0.03873268  0.03209329  0.17911638     0.17600
C1241       C  0.20531350  0.48315876  0.23777274    -0.27600
C1242       C  0.20683136  0.50799410  0.22093122     0.06000
C1243       C  0.20150050  0.53450020  0.23396933     0.25600
C1244       C  0.19388426  0.53592014  0.26295066    -0.12100
C1245       C  0.19201804  0.51100352  0.27990474    -0.26100
C1246       C  0.19892499  0.48468046  0.26702497     0.36400
C1247       C  0.21439737  0.50639127  0.18999141     0.06000
F1248       F  0.20497210  0.55926752  0.21904968    -0.19900
H1249       H  0.19091411  0.55685191  0.27206869     0.15800
F1250       F  0.20006867  0.46033585  0.28286150    -0.23600
H1251       H  0.20932600  0.46245565  0.22837085     0.17600
C1252       C  0.23710092  0.48940103  0.18029317     0.25600
C1253       C  0.24457694  0.48932355  0.15117237    -0.12100
C1254       C  0.22984765  0.50642470  0.13150476    -0.26100
C1255       C  0.20663374  0.52257955  0.14092055     0.36500
C1256       C  0.19893563  0.52241268  0.16984551    -0.27800
F1257       F  0.25263127  0.47356477  0.19897378    -0.19900
H1258       H  0.26221850  0.47638326  0.14406012     0.15800
F1259       F  0.19078324  0.53777545  0.12192146    -0.23600
H1260       H  0.18070737  0.53476169  0.17649867     0.17600
C1261       C  0.32068729  0.47840848  0.44381198    -0.27600
C1262       C  0.30870579  0.50338252  0.43253113     0.06000
C1263       C  0.32429392  0.52926320  0.43402896     0.25600
C1264       C  0.35202458  0.52978735  0.44523012    -0.12100
C1265       C  0.36449088  0.50462723  0.45542783    -0.26100
C1266       C  0.34836857  0.47901635  0.45539812     0.36400
C1267       C  0.28173027  0.50190658  0.41594263     0.06000
F1268       F  0.31344247  0.55364429  0.42289679    -0.19900
H1269       H  0.36405673  0.54979530  0.44535003     0.15800
F1270       F  0.36001380  0.45432450  0.46480552    -0.23600
H1271       H  0.30894722  0.45827390  0.44268636     0.17600
C1272       C  0.28001820  0.48488691  0.39112127     0.25600
C1273       C  0.25608827  0.48617798  0.37314264    -0.12100
C1274       C  0.23363288  0.50476929  0.37934953    -0.26100
C1275       C  0.23512141  0.52143071  0.40456156     0.36500
C1276       C  0.25896414  0.51983745  0.42275282    -0.27800
F1277       F  0.30233627  0.46840958  0.38329558    -0.19900
H1278       H  0.25543540  0.47308889  0.35393694     0.15800
F1279       F  0.21463609  0.54072238  0.41063750    -0.23600
H1280       H  0.26019810  0.53341776  0.44160270     0.17600
C1281       C  0.80006617  0.48699823  0.22963443    -0.27600
C1282       C  0.78874879  0.51200456  0.21796241     0.06000
C1283       C  0.78364595  0.53522154  0.23627088     0.25600
C1284       C  0.78899842  0.53293245  0.26577365    -0.12100
C1285       C  0.79976494  0.50762437  0.27787856    -0.26100
C1286       C  0.80487892  0.48438111  0.25913773     0.36400
C1287       C  0.77941805  0.51223304  0.18744388     0.06000
F1288       F  0.77160708  0.55942530  0.22608667    -0.19900
H1289       H  0.78348160  0.55072572  0.27944090     0.15800
F1290       F  0.81201916  0.45815545  0.26885662    -0.23600
H1291       H  0.80386606  0.46872597  0.21594183     0.17600
C1292       C  0.78623995  0.53518548  0.16905473     0.25600
C1293       C  0.77665668  0.53492868  0.14057262    -0.12100
C1294       C  0.76044245  0.51169488  0.12973070    -0.26100
C1295       C  0.75394363  0.48855535  0.14801473     0.36500
C1296       C  0.76318301  0.48901425  0.17660941    -0.27800
F1297       F  0.80286878  0.55744658  0.17826386    -0.19900
H1298       H  0.78262414  0.55267647  0.12673074     0.15800
F1299       F  0.73834768  0.46569271  0.13848124    -0.23600
H1300       H  0.75740542  0.47121177  0.19044906     0.17600
C1301       C  0.64693465  0.46730990  0.41998352    -0.27600
C1302       C  0.65808098  0.49012588  0.40357373     0.06000
C1303       C  0.64012329  0.51266595  0.39598483     0.25600
C1304       C  0.61195860  0.51312302  0.40597030    -0.12100
C1305       C  0.60107682  0.49105263  0.42362123    -0.26100
C1306       C  0.61861460  0.46774935  0.43002483     0.36400
C1307       C  0.68812189  0.49020670  0.39350348     0.06000
F1308       F  0.64996274  0.53434790  0.37907073    -0.19900
H1309       H  0.59885699  0.53130880  0.40071713     0.15800
F1310       F  0.60907019  0.44649084  0.44759031    -0.23600
H1311       H  0.66046453  0.44960804  0.42572902     0.17600
C1312       C  0.70797897  0.51126653  0.40279731     0.25600
C1313       C  0.73534185  0.51302509  0.39049555    -0.12100
C1314       C  0.74297797  0.49423400  0.36840066    -0.26100
C1315       C  0.72344140  0.47253687  0.35996809     0.36500
C1316       C  0.69636316  0.47046804  0.37261079    -0.27800
F1317       F  0.70063845  0.53049444  0.42323628    -0.19900
H1318       H  0.75007512  0.52987057  0.39725551     0.15800
F1319       F  0.73039639  0.45356702  0.33916392    -0.23600
H1320       H  0.68134572  0.45413074  0.36525629     0.17600
C1321       C  0.90379553  0.00197303  0.77496141    -0.27600
C1322       C  0.89113125  0.98457921  0.79617526     0.06000
C1323       C  0.86582442  0.96937223  0.78987010     0.25600
C1324       C  0.85285854  0.97234086  0.76296654    -0.12100
C1325       C  0.86447093  0.99115125  0.74217493    -0.26100
C1326       C  0.89066273  0.00523506  0.74808614     0.36400
C1327       C  0.90195143  0.98583615  0.82593711     0.06000
F1328       F  0.85250682  0.95346836  0.81046325    -0.19900
H1329       H  0.83298831  0.96077074  0.75886414     0.15800
F1330       F  0.90245239  0.02385693  0.72895528    -0.23600
H1331       H  0.92318255  0.01411615  0.77977660     0.17600
C1332       C  0.91322657  0.96181313  0.83983987     0.25600
C1333       C  0.92360575  0.96411721  0.86812398    -0.12100
C1334       C  0.92259570  0.99035313  0.88278119    -0.26100
C1335       C  0.91021868  0.01400329  0.86889322     0.36500
C1336       C  0.90020099  0.01168539  0.84078424    -0.27800
F1337       F  0.91506023  0.93653389  0.82573847    -0.19900
H1338       H  0.93340564  0.94577122  0.87811186     0.15800
F1339       F  0.90816498  0.03965710  0.88226888    -0.23600
H1340       H  0.89104776  0.03021552  0.83046968     0.17600
C1341       C  0.92311906  0.00283383  0.22311065    -0.27600
C1342       C  0.91517798  0.98027661  0.20466735     0.06000
C1343       C  0.89286852  0.96145996  0.21257255     0.25600
C1344       C  0.87665365  0.96709371  0.23693905    -0.12100
C1345       C  0.88289090  0.99121099  0.25390404    -0.26100
C1346       C  0.90715432  0.00818320  0.24784891     0.36400
C1347       C  0.92697236  0.97937969  0.17539428     0.06000
F1348       F  0.88582097  0.93863975  0.19580685    -0.19900
H1349       H  0.85840618  0.95337541  0.24190143     0.15800
F1350       F  0.91384129  0.03129699  0.26433588    -0.23600
H1351       H  0.94039071  0.01744016  0.21728637     0.17600
C1352       C  0.90872188  0.98361591  0.15174071     0.25600
C1353       C  0.92005649  0.98646106  0.12421515    -0.12100
C1354       C  0.94972061  0.98490720  0.11971288    -0.26100
C1355       C  0.96784986  0.97928725  0.14325782     0.36500
C1356       C  0.95649808  0.97696727  0.17098704    -0.27800
F1357       F  0.88008407  0.98659180  0.15546925    -0.19900
H1358       H  0.90561238  0.99048774  0.10642581     0.15800
F1359       F  0.99658520  0.97743594  0.13976043    -0.23600
H1360       H  0.97075722  0.97382432  0.18910787     0.17600
C1361       C  0.21474658  0.48719013  0.75585434    -0.27600
C1362       C  0.20295717  0.50645919  0.77533694     0.06000
C1363       C  0.18319256  0.52651701  0.76533256     0.25600
C1364       C  0.17627259  0.52795227  0.73605853    -0.12100
C1365       C  0.18911340  0.50947547  0.71610883    -0.26100
C1366       C  0.20794485  0.48857485  0.72667840     0.36400
C1367       C  0.21266686  0.50648134  0.80566675     0.06000
F1368       F  0.17070504  0.54488602  0.78388233    -0.19900
H1369       H  0.16135797  0.54402992  0.72950290     0.15800
F1370       F  0.22084188  0.47015153  0.70847342    -0.23600
H1371       H  0.23015483  0.47167338  0.76308079     0.17600
C1372       C  0.21266620  0.48116183  0.82190395     0.25600
C1373       C  0.22237718  0.48151843  0.85036882    -0.12100
C1374       C  0.23212603  0.50714641  0.86331206    -0.26100
C1375       C  0.23267040  0.53234467  0.84668295     0.36500
C1376       C  0.22305850  0.53189577  0.81818871    -0.27800
F1377       F  0.20235270  0.45628598  0.81057077    -0.19900
H1378       H  0.22134674  0.46178056  0.86253297     0.15800
F1379       F  0.24227885  0.55752439  0.85787157    -0.23600
H1380       H  0.22384568  0.55149257  0.80577616     0.17600
C1381       C  0.28042534  0.55665358  0.61617393    -0.27600
C1382       C  0.29258026  0.53604632  0.59827992     0.06000
C1383       C  0.27613760  0.51151191  0.59087366     0.25600
C1384       C  0.24883102  0.50698087  0.60263972    -0.12100
C1385       C  0.23770321  0.52663907  0.62215099    -0.26100
C1386       C  0.25328755  0.55195789  0.62813716     0.36400
C1387       C  0.32328467  0.53852684  0.59000804     0.06000
F1388       F  0.28694460  0.49142853  0.57306883    -0.19900
H1389       H  0.23712041  0.48735959  0.59785449     0.15800
F1390       F  0.24269068  0.57157304  0.64659902    -0.23600
H1391       H  0.29260885  0.57563038  0.62220004     0.17600
C1392       C  0.33473490  0.56275872  0.57577772     0.25600
C1393       C  0.36338348  0.56312708  0.56633111    -0.12100
C1394       C  0.38095831  0.53950737  0.57133224    -0.26100
C1395       C  0.36998859  0.51650676  0.58778125     0.36500
C1396       C  0.34153521  0.51602071  0.59676621    -0.27800
F1397       F  0.31783798  0.58527765  0.56959902    -0.19900
H1398       H  0.37123253  0.58101064  0.55364134     0.15800
F1399       F  0.38655675  0.49377192  0.59419033    -0.23600
H1400       H  0.33353039  0.49764959  0.60865548     0.17600
C1401       C  0.76609520  0.53176834  0.75358007    -0.27600
C1402       C  0.77940291  0.51347361  0.77315233     0.06000
C1403       C  0.79966246  0.49408930  0.76311118     0.25600
C1404       C  0.80566275  0.49233336  0.73379593    -0.12100
C1405       C  0.79134198  0.50965937  0.71369752    -0.26100
C1406       C  0.77221273  0.53023188  0.72427707     0.36400
C1407       C  0.77126206  0.51391220  0.80379224     0.06000
F1408       F  0.81393608  0.47701123  0.78172999    -0.19900
H1409       H  0.82197182  0.47763358  0.72743026     0.15800
F1410       F  0.75887317  0.54858005  0.70622185    -0.23600
H1411       H  0.75042233  0.54690528  0.76091993     0.17600
C1412       C  0.77052221  0.53966045  0.81926702     0.25600
C1413       C  0.76230150  0.53959667  0.84808501    -0.12100
C1414       C  0.75499091  0.51385213  0.86209846    -0.26100
C1415       C  0.75559185  0.48807679  0.84637850     0.36500
C1416       C  0.76354662  0.48827032  0.81753749    -0.27800
F1417       F  0.77870767  0.56474063  0.80684782    -0.19900
H1418       H  0.76248114  0.55970974  0.85960456     0.15800
F1419       F  0.74880189  0.46255195  0.85872913    -0.23600
H1420       H  0.76357175  0.46826392  0.80582290     0.17600
C1421       C  0.72327480  0.53845517  0.57889046    -0.27600
C1422       C  0.69848556  0.52172503  0.58343076     0.06000
C1423       C  0.69952695  0.49829145  0.60232289     0.25600
C1424       C  0.72442516  0.49276767  0.61773316    -0.12100
C1425       C  0.74878067  0.51030185  0.61443123    -0.26100
C1426       C  0.74833466  0.53291491  0.59444428     0.36400
C1427       C  0.67098680  0.52927909  0.56993777     0.06000
F1428       F  0.67616333  0.48110936  0.60635857    -0.19900
H1429       H  0.72446941  0.47522004  0.63295286     0.15800
F1430       F  0.77125251  0.55090250  0.59156496    -0.23600
H1431       H  0.72277142  0.55658674  0.56440462     0.17600
C1432       C  0.64682843  0.53315879  0.58731397     0.25600
C1433       C  0.61982627  0.53516491  0.57489129    -0.12100
C1434       C  0.61639302  0.53373253  0.54494042    -0.26100
C1435       C  0.64081044  0.53241768  0.52731940     0.36500
C1436       C  0.66802336  0.53015853  0.53987325    -0.27800
F1437       F  0.64923123  0.53382828  0.61643291    -0.19900
H1438       H  0.60136141  0.53681623  0.58881488     0.42200
F1439       F  0.63823764  0.53108285  0.49824133    -0.23600
H1440       H  0.68652541  0.52744982  0.52621426     0.17600
C1441       C  0.96545327  0.28497399  0.25712755    -0.27600
C1442       C  0.98896142  0.29098946  0.27507433     0.06000
C1443       C  0.01219409  0.30693120  0.26409074     0.25600
C1444       C  0.01236968  0.31568502  0.23534140    -0.12100
C1445       C  0.98929866  0.30873662  0.21677486    -0.26100
C1446       C  0.96532691  0.29412986  0.22854776     0.36400
C1447       C  0.98873533  0.28156456  0.30548808     0.06000
F1448       F  0.03457797  0.31454213  0.28134406    -0.19900
H1449       H  0.03081204  0.32781423  0.22825229     0.15800
F1450       F  0.94202147  0.28780658  0.21203490    -0.23600
H1451       H  0.94720592  0.27285690  0.26517718     0.17600
C1452       C  0.96520910  0.28733910  0.32316637     0.25600
C1453       C  0.96588917  0.28016530  0.35227810    -0.12100
C1454       C  0.99011015  0.26731827  0.36445396    -0.26100
C1455       C  0.01326224  0.26058758  0.34652982     0.36500
C1456       C  0.01247238  0.26761222  0.31728950    -0.27800
F1457       F  0.94215219  0.30127823  0.31265357    -0.19900
H1458       H  0.94779996  0.28576279  0.36553927     0.15800
F1459       F  0.03664675  0.24731295  0.35720278    -0.23600
H1460       H  0.03057171  0.26242895  0.30386762     0.17600
C1461       C  0.97146202  0.26445960  0.68038904    -0.27600
C1462       C  0.99255962  0.28287569  0.69189995     0.06000
C1463       C  0.01531697  0.29228532  0.67444223     0.25600
C1464       C  0.01660157  0.28377286  0.64574894    -0.12100
C1465       C  0.99506379  0.26604714  0.63387830    -0.26100
C1466       C  0.97269400  0.25595186  0.65162121     0.36400
C1467       C  0.99138685  0.29127013  0.72242296     0.06000
F1468       F  0.03573554  0.31054314  0.68486134    -0.19900
H1469       H  0.03384956  0.29208804  0.63246943     0.15800
F1470       F  0.95218781  0.23775021  0.64127465    -0.23600
H1471       H  0.95415177  0.25649712  0.69379835     0.17600
C1472       C  0.96702333  0.30412214  0.73385679     0.25600
C1473       C  0.96613048  0.31140835  0.76295164    -0.12100
C1474       C  0.98934509  0.30551567  0.78146801    -0.26100
C1475       C  0.01378038  0.29268312  0.76956900     0.36500
C1476       C  0.01472903  0.28580604  0.74043087    -0.27800
F1477       F  0.94415387  0.30995480  0.71683365    -0.19900
H1478       H  0.94704688  0.32165028  0.77026454     0.15800
F1479       F  0.03677996  0.28644916  0.78624563    -0.23600
H1480       H  0.03359643  0.27564974  0.73197051     0.17600
C1481       C  0.85319586  0.40765024  0.36902253    -0.27600
C1482       C  0.86597698  0.41305597  0.39588301     0.06000
C1483       C  0.86107680  0.43944487  0.40943333     0.25600
C1484       C  0.84457307  0.46020217  0.39583300    -0.12100
C1485       C  0.83297624  0.45528757  0.36831884    -0.26100
C1486       C  0.83655684  0.42824671  0.35556407     0.36400
C1487       C  0.88471217  0.39134044  0.40928961     0.06000
F1488       F  0.87210744  0.44516606  0.43591153    -0.19900
H1489       H  0.84148071  0.48031314  0.40672317     0.15800
F1490       F  0.82359547  0.42137893  0.33024548    -0.23600
H1491       H  0.85649032  0.38756923  0.35806558     0.17600
C1492       C  0.87670303  0.36220469  0.40970811     0.25600
C1493       C  0.89473500  0.34207863  0.42214854    -0.12100
C1494       C  0.92092858  0.35046839  0.43493489    -0.26100
C1495       C  0.92896086  0.37964800  0.43436303     0.36500
C1496       C  0.91115978  0.39967648  0.42140236    -0.27800
F1497       F  0.85102405  0.35319723  0.39896668    -0.19900
H1498       H  0.88773355  0.31989791  0.42237500     0.15800
F1499       F  0.95406082  0.38899086  0.44611051    -0.23600
H1500       H  0.91821416  0.42182873  0.42070285     0.17600
C1501       C  0.84174193  0.42397226  0.58853775    -0.27600
C1502       C  0.86700679  0.41447841  0.60182287     0.06000
C1503       C  0.87533969  0.42669398  0.62829052     0.25600
C1504       C  0.85901815  0.44804537  0.64086190    -0.12100
C1505       C  0.83404904  0.45788794  0.62742485    -0.26100
C1506       C  0.82544207  0.44557693  0.60110881     0.36400
C1507       C  0.88518070  0.39264727  0.58776123     0.06000
F1508       F  0.89919565  0.41782630  0.64222183    -0.19900
H1509       H  0.86621333  0.45723044  0.66107389     0.15800
F1510       F  0.80103407  0.45393805  0.58784281    -0.23600
H1511       H  0.83490380  0.41501620  0.56811248     0.17600
C1512       C  0.87350485  0.36656464  0.57765352     0.25600
C1513       C  0.89127989  0.34595829  0.56549970    -0.12100
C1514       C  0.92088156  0.35116563  0.56251490    -0.26100
C1515       C  0.93238120  0.37757611  0.57183876     0.36500
C1516       C  0.91473986  0.39789033  0.58453620    -0.27800
F1517       F  0.84504063  0.36072005  0.58002343    -0.19900
H1518       H  0.88181419  0.32599856  0.55802290     0.15800
F1519       F  0.96079141  0.38356773  0.56925950    -0.23600
H1520       H  0.92419784  0.41796961  0.59167134     0.17600
C1521       C  0.07337023  0.40089655  0.58169650    -0.27600
C1522       C  0.10286797  0.39630515  0.58518426     0.06000
C1523       C  0.11404812  0.36980432  0.57693921     0.25600
C1524       C  0.09607330  0.34851285  0.56540705    -0.12100
C1525       C  0.06667436  0.35326413  0.56158820    -0.26100
C1526       C  0.05543584  0.37967365  0.56986862     0.36400
C1527       C  0.12172583  0.41886438  0.59801176     0.06000
F1528       F  0.14249027  0.36471672  0.57937480    -0.19900
H1529       H  0.10528948  0.32845015  0.55886907     0.15800
F1530       F  0.02700632  0.38468420  0.56720290    -0.23600
H1531       H  0.06411564  0.42084247  0.58848970     0.17600
C1532       C  0.12065677  0.44741805  0.58854870     0.25600
C1533       C  0.13778620  0.46855228  0.60169757    -0.12100
C1534       C  0.15638979  0.46164819  0.62440413    -0.26100
C1535       C  0.15827159  0.43285334  0.63302066     0.36500
C1536       C  0.14089001  0.41186644  0.62016810    -0.27800
F1537       F  0.10309904  0.45490272  0.56655697    -0.19900
H1538       H  0.13569510  0.49049807  0.59472245     0.15800
F1539       F  0.17687613  0.42487063  0.65392209    -0.23600
H1540       H  0.14208524  0.39009832  0.62795169     0.17600
C1541       C  0.06324339  0.40335194  0.41266466    -0.27600
C1542       C  0.09285599  0.40083544  0.40839717     0.06000
C1543       C  0.10635076  0.37556606  0.41719133     0.25600
C1544       C  0.09035775  0.35315478  0.42936972    -0.12100
C1545       C  0.06078075  0.35570248  0.43366971    -0.26100
C1546       C  0.04732536  0.38108856  0.42524280     0.36400
C1547       C  0.10950401  0.42427062  0.39438683     0.06000
F1548       F  0.13495438  0.37230195  0.41364566    -0.19900
H1549       H  0.10123886  0.33396626  0.43601071     0.15800
F1550       F  0.01869630  0.38420353  0.42868159    -0.23600
H1551       H  0.05242804  0.42271273  0.40646235     0.17600
C1552       C  0.09991002  0.43684696  0.36861729     0.25600
C1553       C  0.11663930  0.45780021  0.35487436    -0.12100
C1554       C  0.14331888  0.46625134  0.36636437    -0.26100
C1555       C  0.15288470  0.45367467  0.39201034     0.36500
C1556       C  0.13589121  0.43331754  0.40610352    -0.27800
F1557       F  0.07496152  0.42808766  0.35610058    -0.19900
H1558       H  0.10884250  0.46725362  0.33512261     0.15800
F1559       F  0.17934108  0.45989336  0.40270816    -0.23600
H1560       H  0.14367849  0.42418149  0.42599917     0.17600
C1561       C  0.09030765  0.09105710  0.64562850    -0.27600
C1562       C  0.10014880  0.09775759  0.61797133     0.06000
C1563       C  0.12344942  0.08295118  0.60657132     0.25600
C1564       C  0.13701965  0.06203756  0.62299625    -0.12100
C1565       C  0.12698536  0.05512633  0.65061020    -0.26100
C1566       C  0.10331787  0.06965365  0.66171411     0.36400
C1567       C  0.08595795  0.12024832  0.60121171     0.06000
F1568       F  0.13316531  0.08893558  0.57970380    -0.19900
H1569       H  0.15497654  0.05081164  0.61396314     0.15800
F1570       F  0.09303613  0.06357776  0.68831788    -0.23600
H1571       H  0.07227336  0.10222106  0.65460628     0.17600
C1572       C  0.07191188  0.11362066  0.57530107     0.25600
C1573       C  0.05853564  0.13504003  0.55956562    -0.12100
C1574       C  0.05890859  0.16350406  0.56936484    -0.26100
C1575       C  0.07262652  0.16995010  0.59574966     0.36500
C1576       C  0.08596398  0.14841275  0.61146080    -0.27800
F1577       F  0.07062380  0.08629793  0.56554237    -0.19900
H1578       H  0.04792129  0.12925031  0.53959679     0.15800
F1579       F  0.07278081  0.19683324  0.60673143    -0.23600
H1580       H  0.09645041  0.15371281  0.63164362     0.17600
C1581       C  0.87912517  0.10297342  0.65114069    -0.27600
C1582       C  0.88959480  0.09603501  0.62366825     0.06000
C1583       C  0.88731005  0.06742383  0.61432128     0.25600
C1584       C  0.87485525  0.04646372  0.63198590    -0.12100
C1585       C  0.86393913  0.05358872  0.65903608    -0.26100
C1586       C  0.86614160  0.08201025  0.66857303     0.36400
C1587       C  0.90307296  0.11842258  0.60494968     0.06000
F1588       F  0.89603910  0.05987854  0.58760161    -0.19900
H1589       H  0.87268572  0.02476794  0.62404165     0.15800
F1590       F  0.85572966  0.08943462  0.69470247    -0.23600
H1591       H  0.88102143  0.12465093  0.65914481     0.17600
C1592       C  0.89041764  0.14527157  0.60095913     0.25600
C1593       C  0.90358856  0.16600484  0.58343923    -0.12100
C1594       C  0.92946077  0.16042006  0.56921476    -0.26100
C1595       C  0.94188252  0.13342738  0.57292474     0.36500
C1596       C  0.92893218  0.11289706  0.59075380    -0.27800
F1597       F  0.86501390  0.15133567  0.61347109    -0.19900
H1598       H  0.89337729  0.18646721  0.58086650     0.15800
F1599       F  0.96710134  0.12709047  0.56018549    -0.23600
H1600       H  0.93947980  0.09268881  0.59383392     0.17600
C1601       C  0.91311816  0.11420969  0.41746717    -0.27600
C1602       C  0.91466702  0.11803532  0.38746636     0.06000
C1603       C  0.92686620  0.14356679  0.37661684     0.25600
C1604       C  0.93595094  0.16519867  0.39536366    -0.12100
C1605       C  0.93423052  0.16133721  0.42522380    -0.26100
C1606       C  0.92330115  0.13544304  0.43621656     0.36400
C1607       C  0.90197116  0.09626216  0.36770996     0.06000
F1608       F  0.93062444  0.14737583  0.34791014    -0.19900
H1609       H  0.94521241  0.18469364  0.38654741     0.15800
F1610       F  0.92180911  0.13100287  0.46504892    -0.23600
H1611       H  0.90348518  0.09500800  0.42646743     0.17600
C1612       C  0.90592389  0.06681952  0.37218803     0.25600
C1613       C  0.89193491  0.04676429  0.35454983    -0.12100
C1614       C  0.87388840  0.05559636  0.33209243    -0.26100
C1615       C  0.87083657  0.08497278  0.32691804     0.36500
C1616       C  0.88451487  0.10500282  0.34472628    -0.27800
F1617       F  0.92320250  0.05736912  0.39361137    -0.19900
H1618       H  0.89456293  0.02425436  0.35907870     0.15800
F1619       F  0.85468446  0.09439818  0.30463180    -0.23600
H1620       H  0.88079678  0.12746738  0.34092651     0.17600
C1621       C  0.09409141  0.07066946  0.38023431    -0.27600
C1622       C  0.09737925  0.09999830  0.37396740     0.06000
C1623       C  0.11339269  0.10809719  0.34955789     0.25600
C1624       C  0.12700461  0.08748569  0.33288615    -0.12100
C1625       C  0.12411299  0.05834895  0.33952448    -0.26100
C1626       C  0.10696224  0.04999495  0.36295208     0.36400
C1627       C  0.08439687  0.12200608  0.39294509     0.06000
F1628       F  0.11542971  0.13592069  0.34145651    -0.19900
H1629       H  0.13969542  0.09425183  0.31456450     0.15800
F1630       F  0.10362889  0.02194703  0.36985986    -0.23600
H1631       H  0.08202472  0.06373627  0.39890232     0.17600
C1632       C  0.05592695  0.11907373  0.40249942     0.25600
C1633       C  0.04392221  0.13992732  0.42006830    -0.12100
C1634       C  0.05963082  0.16456543  0.42798226    -0.26100
C1635       C  0.08809597  0.16770009  0.41840084     0.36500
C1636       C  0.10040160  0.14639212  0.40144265    -0.27800
F1637       F  0.03921147  0.09664736  0.39390293    -0.19900
H1638       H  0.02183189  0.13724278  0.42673568     0.15800
F1639       F  0.10415392  0.19107515  0.42568719    -0.23600
H1640       H  0.12252440  0.14899482  0.39488239     0.17600
C1641       C  0.01296914  0.74825436  0.31402335    -0.27600
C1642       C  0.98915351  0.73569935  0.30037530     0.06000
C1643       C  0.96418768  0.73002490  0.31627197     0.25600
C1644       C  0.96359109  0.73589945  0.34581310    -0.12100
C1645       C  0.98781322  0.74774243  0.35981076    -0.26100
C1646       C  0.01240279  0.75433460  0.34338918     0.36400
C1647       C  0.99048610  0.72982836  0.26925155     0.06000
F1648       F  0.94034561  0.71923155  0.30316470    -0.19900
H1649       H  0.94431179  0.73079206  0.35778244     0.15800
F1650       F  0.03587130  0.76697190  0.35553276    -0.23600
H1651       H  0.03211226  0.75333746  0.30181545     0.17600
C1652       C  0.99010811  0.75250631  0.24971280     0.25600
C1653       C  0.99273443  0.74743174  0.22028342    -0.12100
C1654       C  0.99613151  0.71943696  0.20940090    -0.26100
C1655       C  0.99720749  0.69678102  0.22951985     0.36500
C1656       C  0.99414920  0.70196415  0.25906653    -0.27800
F1657       F  0.98707592  0.77973898  0.25917615    -0.19900
H1658       H  0.99184407  0.76598238  0.20673425     0.15800
F1659       F  0.00094804  0.66950226  0.22055848    -0.23600
H1660       H  0.99503296  0.68427283  0.27406962     0.17600
C1661       C  0.01764522  0.73775834  0.67468275    -0.27600
C1662       C  0.99243961  0.72701948  0.68733389     0.06000
C1663       C  0.96723165  0.72518798  0.67086336     0.25600
C1664       C  0.96748990  0.73362536  0.64207602    -0.12100
C1665       C  0.99281380  0.74420924  0.62917896    -0.26100
C1666       C  0.01793686  0.74633383  0.64592899     0.36400
C1667       C  0.99260284  0.71885041  0.71800404     0.06000
F1668       F  0.94253208  0.71467917  0.68239529    -0.19900
H1669       H  0.94784791  0.73132563  0.62976351     0.15800
F1670       F  0.04275656  0.75688017  0.63475253    -0.23600
H1671       H  0.03713030  0.73986912  0.68727667     0.17600
C1672       C  0.01339607  0.70036344  0.72881032     0.25600
C1673       C  0.01514922  0.69485256  0.75827807    -0.12100
C1674       C  0.99623993  0.70781228  0.77772868    -0.26100
C1675       C  0.97498039  0.72590238  0.76647161     0.36500
C1676       C  0.97315925  0.73116221  0.73698195    -0.27800
F1677       F  0.03224041  0.68777231  0.71082362    -0.19900
H1678       H  0.03183936  0.68085697  0.76528184     0.15800
F1679       F  0.95651360  0.73939631  0.78418136    -0.23600
H1680       H  0.95720817  0.74579468  0.72907206     0.17600
C1681       C  0.11083865  0.65144963  0.41622925    -0.27600
C1682       C  0.09948601  0.62512105  0.40681992     0.06000
C1683       C  0.06997264  0.61928042  0.41020158     0.25600
C1684       C  0.05237729  0.63936668  0.42303531    -0.12100
C1685       C  0.06374154  0.66574837  0.43211092    -0.26100
C1686       C  0.09314929  0.67173925  0.42852564     0.36400
C1687       C  0.11856133  0.60363622  0.39413540     0.06000
F1688       F  0.05799379  0.59440221  0.40063417    -0.19900
H1689       H  0.02974430  0.63450950  0.42543721     0.15800
F1690       F  0.10500654  0.69680423  0.43778912    -0.23600
H1691       H  0.13355579  0.65615483  0.41452137     0.17600
C1692       C  0.13884197  0.61122800  0.37301253     0.25600
C1693       C  0.15581701  0.59032854  0.36057861    -0.12100
C1694       C  0.15266457  0.56153194  0.36868491    -0.26100
C1695       C  0.13280156  0.55413639  0.39031158     0.36500
C1696       C  0.11628966  0.57508204  0.40306697    -0.27800
F1697       F  0.14154252  0.63859706  0.36357532    -0.19900
H1698       H  0.17111663  0.59661963  0.34420333     0.15800
F1699       F  0.12794272  0.52657710  0.39820347    -0.23600
H1700       H  0.10129144  0.56882623  0.41973655     0.17600
C1701       C  0.10447998  0.64946565  0.58688627    -0.27600
C1702       C  0.09485748  0.62093288  0.58642167     0.06000
C1703       C  0.06849404  0.61403384  0.57337056     0.25600
C1704       C  0.05248777  0.63526411  0.56011977    -0.12100
C1705       C  0.06227189  0.66385308  0.55994893    -0.26100
C1706       C  0.08833416  0.67084854  0.57397251     0.36400
C1707       C  0.11225217  0.59846681  0.59981919     0.06000
F1708       F  0.05856018  0.58661484  0.57282200    -0.19900
H1709       H  0.03239665  0.62922243  0.54991585     0.15800
F1710       F  0.09860791  0.69815859  0.57481841    -0.23600
H1711       H  0.12454448  0.65517287  0.59734618     0.17600
C1712       C  0.14060854  0.59399427  0.59100859     0.25600
C1713       C  0.15700115  0.57301451  0.60440569    -0.12100
C1714       C  0.14534320  0.55647803  0.62681198    -0.26100
C1715       C  0.11670230  0.56034217  0.63489235     0.36500
C1716       C  0.10037006  0.58125412  0.62154849    -0.27800
F1717       F  0.15224238  0.60967882  0.56927272    -0.19900
H1718       H  0.17897635  0.57011545  0.59776493     0.15800
F1719       F  0.10440213  0.54358200  0.65540789    -0.23600
H1720       H  0.07846777  0.58423766  0.62837688     0.17600
C1721       C  0.91551919  0.61741238  0.58506735    -0.27600
C1722       C  0.88558346  0.61930729  0.58311997     0.06000
C1723       C  0.87344099  0.64263503  0.56882621     0.25600
C1724       C  0.89104584  0.66383553  0.55689318    -0.12100
C1725       C  0.92092381  0.66185547  0.55868776    -0.26100
C1726       C  0.93315650  0.63849719  0.57283352     0.36400
C1727       C  0.86719746  0.59726759  0.59669869     0.06000
F1728       F  0.84461128  0.64454650  0.56583336    -0.19900
H1729       H  0.88135945  0.68157008  0.54569980     0.15800
F1730       F  0.96201950  0.63656039  0.57556338    -0.23600
H1731       H  0.92518512  0.59976992  0.59641320     0.17600
C1732       C  0.87069569  0.56822940  0.59024755     0.25600
C1733       C  0.85425728  0.54744040  0.60442768    -0.12100
C1734       C  0.83421593  0.55530847  0.62526278    -0.26100
C1735       C  0.83003472  0.58444485  0.63101678     0.36500
C1736       C  0.84648564  0.60522424  0.61682808    -0.27800
F1737       F  0.88986777  0.56004527  0.57010327    -0.19900
H1738       H  0.85762443  0.52511781  0.59955564     0.15800
F1739       F  0.80976761  0.59284832  0.64993565    -0.23600
H1740       H  0.84339986  0.62755416  0.62189358     0.17600
C1741       C  0.87237280  0.56536773  0.39811994    -0.27600
C1742       C  0.86246856  0.59338224  0.40093718     0.06000
C1743       C  0.83513064  0.59995151  0.39006193     0.25600
C1744       C  0.81844177  0.57896642  0.37615749    -0.12100
C1745       C  0.82862390  0.55114404  0.37311887    -0.26100
C1746       C  0.85573585  0.54449926  0.38413780     0.36400
C1747       C  0.88144675  0.61599634  0.41340554     0.06000
F1748       F  0.82468409  0.62671866  0.39265737    -0.19900
H1749       H  0.79780464  0.58453466  0.36724720     0.15800
F1750       F  0.86710999  0.51848247  0.37940970    -0.23600
H1751       H  0.89362708  0.55995759  0.40550505     0.17600
C1752       C  0.89630494  0.61171649  0.43942669     0.25600
C1753       C  0.91399730  0.63341615  0.45071034    -0.12100
C1754       C  0.91731678  0.65971085  0.43626606    -0.26100
C1755       C  0.90304009  0.66364021  0.40991297     0.36500
C1756       C  0.88537160  0.64198208  0.39866897    -0.27800
F1757       F  0.89327181  0.58685252  0.45427380    -0.19900
H1758       H  0.92476298  0.62978704  0.47104630     0.15800
F1759       F  0.90674990  0.68809646  0.39456201    -0.23600
H1760       H  0.87500668  0.64539756  0.37809918     0.17600
C1761       C  0.07738339  0.90034504  0.41767735    -0.27600
C1762       C  0.08103464  0.89655415  0.38786733     0.06000
C1763       C  0.07121251  0.87072183  0.37537315     0.25600
C1764       C  0.05817770  0.84941007  0.39237043    -0.12100
C1765       C  0.05425918  0.85343971  0.42208441    -0.26100
C1766       C  0.06411910  0.87916083  0.43459231     0.36400
C1767       C  0.09623225  0.91910392  0.37053173     0.06000
F1768       F  0.07494439  0.86562322  0.34690271    -0.19900
H1769       H  0.05087635  0.82976408  0.38219516     0.15800
F1770       F  0.06171290  0.88351133  0.46335222    -0.23600
H1771       H  0.08481342  0.91988158  0.42795300     0.17600
C1772       C  0.08530770  0.92897940  0.34404327     0.25600
C1773       C  0.09996471  0.95035284  0.32844584    -0.12100
C1774       C  0.12589005  0.96219746  0.33865744    -0.26100
C1775       C  0.13671979  0.95247391  0.36522892     0.36500
C1776       C  0.12198999  0.93131081  0.38088833    -0.27800
F1777       F  0.06006761  0.91860743  0.33352527    -0.19900
H1778       H  0.09111104  0.95752289  0.30817028     0.15800
F1779       F  0.16113148  0.96395139  0.37660503    -0.23600
H1780       H  0.13091053  0.92427080  0.40118759     0.17600
C1781       C  0.91342605  0.90226355  0.41910308    -0.27600
C1782       C  0.89843828  0.89488974  0.39395402     0.06000
C1783       C  0.89732152  0.86619121  0.38510760     0.25600
C1784       C  0.91071001  0.84518210  0.40142453    -0.12100
C1785       C  0.92593820  0.85241433  0.42660847    -0.26100
C1786       C  0.92733736  0.88139125  0.43518778     0.36400
C1787       C  0.88544269  0.91738643  0.37610464     0.06000
F1788       F  0.88320742  0.85846516  0.36066832    -0.19900
H1789       H  0.90948441  0.82325734  0.39401515     0.15800
F1790       F  0.94223854  0.88978413  0.45895112    -0.23600
H1791       H  0.91494912  0.92438116  0.42589917     0.17600
C1792       C  0.86498888  0.93599641  0.38744711     0.25600
C1793       C  0.85285666  0.95696125  0.36991129    -0.12100
C1794       C  0.86158304  0.96004984  0.34121412    -0.26100
C1795       C  0.88242312  0.94181271  0.33013451     0.36500
C1796       C  0.89399940  0.92051381  0.34738843    -0.27800
F1797       F  0.85659440  0.93370140  0.41529828    -0.19900
H1798       H  0.83709647  0.97115025  0.37882994     0.15800
F1799       F  0.89132575  0.94428365  0.30247883    -0.23600
H1800       H  0.91000201  0.90661662  0.33842960     0.17600
C1801       C  0.91435446  0.90057638  0.57379385    -0.27600
C1802       C  0.90445300  0.89477701  0.60167847     0.06000
C1803       C  0.90785369  0.86719157  0.61313919     0.25600
C1804       C  0.92073124  0.84582685  0.59677709    -0.12100
C1805       C  0.93070441  0.85164595  0.56879937    -0.26100
C1806       C  0.92753168  0.87941852  0.55758301     0.36400
C1807       C  0.88981522  0.91735589  0.61820791     0.06000
F1808       F  0.89794963  0.86067455  0.63981916    -0.19900
H1809       H  0.92295346  0.82473595  0.60605336     0.15800
F1810       F  0.93657973  0.88608534  0.53064239    -0.23600
H1811       H  0.91195420  0.92166241  0.56455309     0.17600
C1812       C  0.89839626  0.92436051  0.64641966     0.25600
C1813       C  0.88378074  0.94508429  0.66197951    -0.12100
C1814       C  0.86046316  0.95922054  0.64969377    -0.26100
C1815       C  0.85231733  0.95277535  0.62123107     0.36500
C1816       C  0.86694690  0.93207687  0.60566384    -0.27800
F1817       F  0.92123534  0.91155163  0.65874457    -0.19900
H1818       H  0.89046901  0.94982558  0.68382832     0.15800
F1819       F  0.83058761  0.96685180  0.60828437    -0.23600
H1820       H  0.86016267  0.92724198  0.58386415     0.17600
C1821       C  0.09843389  0.86972061  0.59195703    -0.27600
C1822       C  0.08354734  0.89443850  0.59961568     0.06000
C1823       C  0.05566676  0.89828217  0.58876773     0.25600
C1824       C  0.04286831  0.87758637  0.57123402    -0.12100
C1825       C  0.05740536  0.85257592  0.56435342    -0.26100
C1826       C  0.08546180  0.84884373  0.57459160     0.36400
C1827       C  0.09706547  0.91623983  0.61866039     0.06000
F1828       F  0.04032297  0.92162283  0.59578598    -0.19900
H1829       H  0.02117024  0.88077796  0.56369110     0.15800
F1830       F  0.10050882  0.82533812  0.56735509    -0.23600
H1831       H  0.12023074  0.86665933  0.59920565     0.17600
C1832       C  0.11217824  0.90838754  0.64367515     0.25600
C1833       C  0.12457153  0.92940876  0.66132427    -0.12100
C1834       C  0.12166366  0.95846696  0.65463228    -0.26100
C1835       C  0.10630122  0.96630994  0.62996520     0.36500
C1836       C  0.09457236  0.94537250  0.61195646    -0.27800
F1837       F  0.11465826  0.88052382  0.65131515    -0.19900
H1838       H  0.13644114  0.92303764  0.68027861     0.15800
F1839       F  0.10380191  0.99417422  0.62243652    -0.23600
H1840       H  0.08387997  0.95202252  0.59241990     0.17600
C1841       C  0.16635588  0.78895943  0.46519096    -0.27600
C1842       C  0.18386070  0.78305214  0.48892670     0.06000
C1843       C  0.17205493  0.76843371  0.51267971     0.25600
C1844       C  0.14285160  0.76141822  0.51328164    -0.12100
C1845       C  0.12503615  0.76831992  0.48997500    -0.26100
C1846       C  0.13728720  0.78159155  0.46553419     0.36400
C1847       C  0.21383763  0.79384872  0.48962529     0.06000
F1848       F  0.18877791  0.76105519  0.53535946    -0.19900
H1849       H  0.13413762  0.75079331  0.53210721     0.15800
F1850       F  0.12102548  0.78885596  0.44246379    -0.23600
H1851       H  0.17496520  0.80033165  0.44675811     0.17600
C1852       C  0.23265178  0.78897356  0.46677258     0.25600
C1853       C  0.26100766  0.79883544  0.46843942    -0.12100
C1854       C  0.27167459  0.81311389  0.49318350    -0.26100
C1855       C  0.25208571  0.81909914  0.51543635     0.36500
C1856       C  0.22360876  0.80966628  0.51340004    -0.27800
F1857       F  0.22408237  0.77345969  0.44349959    -0.19900
H1858       H  0.27529802  0.79381242  0.45090066     0.15800
F1859       F  0.25982380  0.83310398  0.53972379    -0.23600
H1860       H  0.20910909  0.81440479  0.53083809     0.17600
C1861       C  0.38343098  0.65732321  0.47433169    -0.27600
C1862       C  0.40146013  0.68157844  0.47210501     0.06000
C1863       C  0.43086686  0.67809696  0.46730196     0.25600
C1864       C  0.44212663  0.65066986  0.46590167    -0.12100
C1865       C  0.42419791  0.62652729  0.46918720    -0.26100
C1866       C  0.39474752  0.62992681  0.47310578     0.36400
C1867       C  0.38942361  0.71026487  0.47597688     0.06000
F1868       F  0.44868232  0.70116551  0.46458813    -0.19900
H1869       H  0.46505269  0.64824003  0.46365378     0.15800
F1870       F  0.37735067  0.60685757  0.47771684    -0.23600
H1871       H  0.36075580  0.65965763  0.47835080     0.17600
C1872       C  0.36627801  0.71885345  0.45895603     0.25600
C1873       C  0.35356123  0.74506371  0.46394118    -0.12100
C1874       C  0.36343838  0.76306793  0.48618751    -0.26100
C1875       C  0.38681179  0.75472978  0.50306827     0.36500
C1876       C  0.39982429  0.72847927  0.49786003    -0.27800
F1877       F  0.35587031  0.70176739  0.43761689    -0.19900
H1878       H  0.33558159  0.75117855  0.45062088     0.15800
F1879       F  0.39590653  0.77107243  0.52551639    -0.23600
H1880       H  0.41733021  0.72186694  0.51155173     0.17600
C1881       C  0.17363102  0.24598619  0.47307563    -0.27600
C1882       C  0.18702294  0.23517772  0.49781361     0.06000
C1883       C  0.17055719  0.23048505  0.52267947     0.25600
C1884       C  0.14132598  0.23652592  0.52271498    -0.12100
C1885       C  0.12779510  0.24728682  0.49794840    -0.26100
C1886       C  0.14436766  0.25194817  0.47301541     0.36400
C1887       C  0.21796264  0.22825568  0.49732843     0.06000
F1888       F  0.18251223  0.21910127  0.54665894    -0.19900
H1889       H  0.12916346  0.23219318  0.54207952     0.15800
F1890       F  0.13248716  0.26250914  0.44860091    -0.23600
H1891       H  0.18594345  0.24994828  0.45372983     0.17600
C1892       C  0.22894616  0.21066407  0.47572693     0.25600
C1893       C  0.25798846  0.20390976  0.47539003    -0.12100
C1894       C  0.27710322  0.21455824  0.49659159    -0.26100
C1895       C  0.26572782  0.23198100  0.51850403     0.36500
C1896       C  0.23662572  0.23881687  0.51868579    -0.27800
F1897       F  0.21136565  0.19920835  0.45529353    -0.19900
H1898       H  0.26476002  0.18989717  0.45849466     0.15800
F1899       F  0.28283663  0.24266713  0.53974000    -0.23600
H1900       H  0.22865471  0.25254104  0.53551331     0.17600
C1901       C  0.41585628  0.28232018  0.47771953    -0.27600
C1902       C  0.40934569  0.30583900  0.49514462     0.06000
C1903       C  0.38890469  0.30238773  0.51712042     0.25600
C1904       C  0.37300147  0.27702723  0.51927869    -0.12100
C1905       C  0.37771633  0.25445245  0.50014589    -0.26100
C1906       C  0.40041391  0.25657266  0.48046063     0.36400
C1907       C  0.42152711  0.33455438  0.48870677     0.06000
F1908       F  0.38354138  0.32394276  0.53579836    -0.19900
H1909       H  0.35618294  0.27537003  0.53522648     0.15800
F1910       F  0.40614418  0.23470610  0.46233626    -0.23600
H1911       H  0.43167726  0.28438252  0.46084004     0.17600
C1912       C  0.45104540  0.33918444  0.48435240     0.25600
C1913       C  0.46189844  0.36696414  0.48015502    -0.12100
C1914       C  0.44352918  0.39041577  0.48078284    -0.26100
C1915       C  0.41382123  0.38544569  0.48306197     0.36500
C1916       C  0.40302911  0.35780802  0.48681347    -0.27800
F1917       F  0.46952381  0.31716453  0.48581762    -0.19900
H1918       H  0.48479510  0.37025629  0.47810003     0.15800
F1919       F  0.39519439  0.40740524  0.48244599    -0.23600
H1920       H  0.38009060  0.35462219  0.48886281     0.17600
C1921       C  0.71800806  0.33490925  0.96876855    -0.27600
C1922       C  0.71472185  0.32034801  0.99500145     0.06000
C1923       C  0.71854725  0.33549500  0.02087166     0.25600
C1924       C  0.72571034  0.36451544  0.02040934    -0.12100
C1925       C  0.72869933  0.37929899  0.99420520    -0.26100
C1926       C  0.72447561  0.36413586  0.96824020     0.36400
C1927       C  0.70745510  0.28941778  0.99524919     0.06000
F1928       F  0.71448048  0.32249626  0.04668667    -0.19900
H1929       H  0.72837098  0.37549152  0.04077454     0.15800
F1930       F  0.72603067  0.37741552  0.94229083    -0.23600
H1931       H  0.71551778  0.32362719  0.94854938     0.17600
C1932       C  0.68572583  0.27811469  0.97740186     0.25600
C1933       C  0.67974891  0.24876750  0.97717803    -0.12100
C1934       C  0.69532690  0.22990343  0.99476611    -0.26100
C1935       C  0.71621737  0.24169028  0.01353379     0.36500
C1936       C  0.72244040  0.27092744  0.01338791    -0.27800
F1937       F  0.66990067  0.29548656  0.96042600    -0.19900
H1938       H  0.66272730  0.24146567  0.96319480     0.15800
F1939       F  0.73136216  0.22471537  0.03151271    -0.23600
H1940       H  0.73945316  0.27904437  0.02718172     0.17600
C1941       C  0.84048844  0.09127348  0.94873896    -0.27600
C1942       C  0.82814957  0.10299633  0.97355945     0.06000
C1943       C  0.84498941  0.10632562  0.99844034     0.25600
C1944       C  0.87303739  0.09670988  0.99895969    -0.12100
C1945       C  0.88506266  0.08357139  0.97471465    -0.26100
C1946       C  0.86879447  0.08161486  0.94926226     0.36400
C1947       C  0.79794900  0.11220862  0.97379526     0.06000
F1948       F  0.83425595  0.11884505  0.02235569    -0.19900
H1949       H  0.88518155  0.09878012  0.01878979     0.15800
F1950       F  0.87952266  0.06877917  0.92559004    -0.23600
H1951       H  0.82788759  0.08874422  0.92926970     0.17600
C1952       C  0.78827218  0.13244771  0.95386531     0.25600
C1953       C  0.76129384  0.14445794  0.95716140    -0.12100
C1954       C  0.74365453  0.13662790  0.98044368    -0.26100
C1955       C  0.75255955  0.11519019  0.99935990     0.36500
C1956       C  0.77949165  0.10300662  0.99596064    -0.27800
F1957       F  0.80576329  0.14229594  0.93266361    -0.19900
H1958       H  0.75471826  0.16099174  0.94232954     0.15800
F1959       F  0.73637191  0.10786929  0.02250198    -0.23600
H1960       H  0.78655419  0.08732910  0.01148622     0.17600
C1961       C  0.25948355  0.32913832  0.02209403    -0.27600
C1962       C  0.27241698  0.31653166  0.99810809     0.06000
C1963       C  0.27647133  0.33314659  0.97307705     0.25600
C1964       C  0.26806075  0.36167885  0.97240125    -0.12100
C1965       C  0.25596372  0.37451122  0.99676426    -0.26100
C1966       C  0.25175929  0.35783436  0.02167867     0.36400
C1967       C  0.28141248  0.28616131  0.99927378     0.06000
F1968       F  0.28955470  0.32222939  0.94957075    -0.19900
H1969       H  0.27203592  0.37401985  0.95305169     0.15800
F1970       F  0.24025840  0.36918363  0.04579766    -0.23600
H1971       H  0.25524995  0.31675251  0.04133570     0.17600
C1972       C  0.29508218  0.27482879  0.02375781     0.25600
C1973       C  0.30323870  0.24618631  0.02443134    -0.12100
C1974       C  0.29790658  0.22804993  0.00076821    -0.26100
C1975       C  0.28415265  0.23958871  0.97636387     0.36500
C1976       C  0.27594353  0.26807444  0.97578323    -0.27800
F1977       F  0.30076492  0.29138881  0.04712611    -0.19900
H1978       H  0.31315794  0.23855569  0.04387808     0.15800
F1979       F  0.27759486  0.22290125  0.95328312    -0.23600
H1980       H  0.26458760  0.27577748  0.95704719     0.17600
C1981       C  0.22186308  0.09301641  0.00505725    -0.27600
C1982       C  0.20276569  0.10064592  0.98298944     0.06000
C1983       C  0.21024892  0.12300175  0.96412893     0.25600
C1984       C  0.23563358  0.13837362  0.96825139    -0.12100
C1985       C  0.25416652  0.13147493  0.99090083    -0.26100
C1986       C  0.24760739  0.10825414  0.00890133     0.36400
C1987       C  0.17414482  0.08700144  0.98097732     0.06000
F1988       F  0.19277518  0.13027297  0.94197735    -0.19900
H1989       H  0.24065690  0.15609853  0.95401474     0.15800
F1990       F  0.26512259  0.10153375  0.03118245    -0.23600
H1991       H  0.21628935  0.07609496  0.02003392     0.17600
C1992       C  0.17056071  0.05712033  0.98121795     0.25600
C1993       C  0.14311087  0.04490511  0.97947546    -0.12100
C1994       C  0.11898384  0.06229756  0.97853895    -0.26100
C1995       C  0.12261847  0.09217170  0.97811651     0.36500
C1996       C  0.14996148  0.10432486  0.97924801    -0.27800
F1997       F  0.19350027  0.03980175  0.98322292    -0.19900
H1998       H  0.14066718  0.02191898  0.97984177     0.15800
F1999       F  0.09969986  0.10964108  0.97691863    -0.23600
H2000       H  0.15221300  0.12740413  0.97951125     0.17600
C2001       C  0.75505927  0.79799450  0.47044127    -0.27600
C2002       C  0.76910990  0.79186571  0.49636773     0.06000
C2003       C  0.75407529  0.79419082  0.52233831     0.25600
C2004       C  0.72606760  0.80386570  0.52240190    -0.12100
C2005       C  0.71215933  0.81133756  0.49661531    -0.26100
C2006       C  0.72660806  0.80664781  0.47038318     0.36400
C2007       C  0.79946397  0.78338785  0.49647664     0.06000
F2008       F  0.76610094  0.78606054  0.54762663    -0.19900
H2009       H  0.71492189  0.80455126  0.54276174     0.15800
F2010       F  0.71313179  0.80875389  0.44459372    -0.23600
H2011       H  0.76601360  0.79579070  0.45008770     0.17600
C2012       C  0.80974009  0.76270293  0.47728232     0.25600
C2013       C  0.83863366  0.75536943  0.47782351    -0.12100
C2014       C  0.85750558  0.76819339  0.49773209    -0.26100
C2015       C  0.84719856  0.78883472  0.51687338     0.36500
C2016       C  0.81852888  0.79644524  0.51603461    -0.27800
F2017       F  0.79185857  0.74927573  0.45836223    -0.19900
H2018       H  0.84627424  0.73958002  0.46277852     0.15800
F2019       F  0.86510332  0.80271982  0.53545556    -0.23600
H2020       H  0.81129163  0.81300481  0.53043134     0.17600
C2021       C  0.58290008  0.66969920  0.52051669    -0.27600
C2022       C  0.56592978  0.69350803  0.51504149     0.06000
C2023       C  0.53604764  0.69022101  0.51322375     0.25600
C2024       C  0.52350861  0.66292610  0.51497877    -0.12100
C2025       C  0.54077059  0.63888579  0.51844942    -0.26100
C2026       C  0.57045137  0.64254610  0.52234270     0.36400
C2027       C  0.58012879  0.72109275  0.50915139     0.06000
F2028       F  0.51931559  0.71307208  0.50789121    -0.19900
H2029       H  0.50060218  0.66039399  0.51185783     0.15800
F2030       F  0.58745821  0.61974670  0.52708894    -0.23600
H2031       H  0.60594864  0.67210977  0.52247040     0.17600
C2032       C  0.57696946  0.74441207  0.52775917     0.25600
C2033       C  0.59367284  0.76912937  0.52379349    -0.12100
C2034       C  0.61351749  0.77064171  0.50127885    -0.26100
C2035       C  0.61540289  0.74795200  0.48166543     0.36500
C2036       C  0.59885291  0.72328076  0.48570808    -0.27800
F2037       F  0.55899281  0.74263486  0.55058065    -0.19900
H2038       H  0.59215125  0.78650686  0.53907426     0.15800
F2039       F  0.63364242  0.74948490  0.45899364    -0.23600
H2040       H  0.60114654  0.70552044  0.47098879     0.17600
C2041       C  0.73770637  0.69381378  0.01773171    -0.27600
C2042       C  0.72127925  0.70520619  0.99522934     0.06000
C2043       C  0.71116355  0.68712586  0.97327105     0.25600
C2044       C  0.71750397  0.65809373  0.97382917    -0.12100
C2045       C  0.73370752  0.64648370  0.99643813    -0.26100
C2046       C  0.74387722  0.66465841  0.01842573     0.36400
C2047       C  0.71333076  0.73559436  0.99569266     0.06000
F2048       F  0.69422424  0.69733343  0.95193633    -0.19900
H2049       H  0.70911558  0.64450414  0.95687837     0.15800
F2050       F  0.76003982  0.65436517  0.04031396    -0.23600
H2051       H  0.74559838  0.70755460  0.03485941     0.17600
C2052       C  0.69646254  0.74587377  0.01808158     0.25600
C2053       C  0.68870142  0.77447269  0.01878951    -0.12100
C2054       C  0.69754165  0.79381136  0.99708853    -0.26100
C2055       C  0.71476741  0.78321416  0.97461323     0.36500
C2056       C  0.72230616  0.75435454  0.97386345    -0.27800
F2057       F  0.68715235  0.72806666  0.03927364    -0.19900
H2058       H  0.67624071  0.78081982  0.03700410     0.15800
F2059       F  0.72467075  0.80085996  0.95353964    -0.23600
H2060       H  0.73550780  0.74670030  0.95646380     0.17600
C2061       C  0.76377032  0.93631293  0.99714220    -0.27600
C2062       C  0.78492097  0.92895187  0.01723668     0.06000
C2063       C  0.78063916  0.90506147  0.03499378     0.25600
C2064       C  0.75636192  0.88766450  0.03128020    -0.12100
C2065       C  0.73620918  0.89375312  0.00967628    -0.26100
C2066       C  0.73952256  0.91880581  0.99329003     0.36400
C2067       C  0.81359134  0.94225528  0.01527370     0.06000
F2068       F  0.80115789  0.89712539  0.05402188    -0.19900
H2069       H  0.75392789  0.86867613  0.04444786     0.15800
F2070       F  0.72084058  0.92493485  0.97180985    -0.23600
H2071       H  0.76708255  0.95452138  0.98305885     0.17600
C2072       C  0.83002192  0.93717635  0.99069785     0.25600
C2073       C  0.85784196  0.94806808  0.98877683    -0.12100
C2074       C  0.86991219  0.96424747  0.01136759    -0.26100
C2075       C  0.85349152  0.96905543  0.03626408     0.36500
C2076       C  0.82549445  0.95797096  0.03818209    -0.27800
F2077       F  0.81936713  0.92081880  0.96889449    -0.19900
H2078       H  0.86993982  0.94381707  0.96944943     0.15800
F2079       F  0.86470919  0.98363650  0.05901024    -0.23600
H2080       H  0.81318243  0.96143509  0.05753983     0.17600
C2081       C  0.27268808  0.74776417  0.02470712    -0.27600
C2082       C  0.27925048  0.73049797  0.00113883     0.06000
C2083       C  0.29368429  0.74247190  0.97753037     0.25600
C2084       C  0.30115534  0.77142302  0.97737632    -0.12100
C2085       C  0.29427188  0.78918664  0.00079136    -0.26100
C2086       C  0.27996494  0.77676732  0.02457227     0.36400
C2087       C  0.27059398  0.70010778  0.00104327     0.06000
F2088       F  0.30047647  0.72615705  0.95446378    -0.19900
H2089       H  0.31140659  0.77946329  0.95825433     0.15800
F2090       F  0.27177721  0.79301983  0.04719588    -0.23600
H2091       H  0.26114276  0.73892359  0.04292247     0.17600
C2092       C  0.27818103  0.68222875  0.02397390     0.25600
C2093       C  0.27080632  0.65330329  0.02316614    -0.12100
C2094       C  0.25563714  0.64172964  0.99958837    -0.26100
C2095       C  0.24736825  0.65981246  0.97698353     0.36500
C2096       C  0.25484791  0.68879791  0.97777988    -0.27800
F2097       F  0.29352884  0.69251936  0.04669461    -0.19900
H2098       H  0.27768813  0.63978603  0.04073038     0.15800
F2099       F  0.23179968  0.64963394  0.95437727    -0.23600
H2100       H  0.24829447  0.70249715  0.96023613     0.17600
C2101       C  0.19346628  0.88698074  0.99521544    -0.27600
C2102       C  0.19165231  0.90671104  0.01777337     0.06000
C2103       C  0.21669984  0.91469231  0.03289735     0.25600
C2104       C  0.24294939  0.90228179  0.02604992    -0.12100
C2105       C  0.24454104  0.88187703  0.00402117    -0.26100
C2106       C  0.21961468  0.87476347  0.98823754     0.36400
C2107       C  0.16391210  0.92055651  0.02321026     0.06000
F2108       F  0.21562201  0.93390507  0.05469785    -0.19900
H2109       H  0.26178256  0.90773794  0.03870991     0.15800
F2110       F  0.22052275  0.85585259  0.96612045    -0.23600
H2111       H  0.17455820  0.88125595  0.98277707     0.17600
C2112       C  0.16032300  0.94906736  0.01499269     0.25600
C2113       C  0.13301945  0.96068811  0.01432169    -0.12100
C2114       C  0.10875934  0.94440571  0.02218557    -0.26100
C2115       C  0.11254745  0.91658369  0.03287860     0.36500
C2116       C  0.13997491  0.90456431  0.03283160    -0.27800
F2117       F  0.18295762  0.96502460  0.00557555    -0.19900
H2118       H  0.13058760  0.98231265  0.00667981     0.15800
F2119       F  0.08975110  0.90050246  0.04158259    -0.23600
H2120       H  0.14242921  0.88250376  0.03933302     0.17600
C2121       C  0.31875126  0.03679921  0.26772812    -0.27600
C2122       C  0.30542888  0.01179101  0.27839870     0.06000
C2123       C  0.32188987  0.98702408  0.28121687     0.25600
C2124       C  0.35077064  0.98729424  0.27321175    -0.12100
C2125       C  0.36424515  0.01238451  0.26275568    -0.26100
C2126       C  0.34781017  0.03726498  0.26024644     0.36400
C2127       C  0.27440352  0.01163794  0.28616512     0.06000
F2128       F  0.31038654  0.96279472  0.29276161    -0.19900
H2129       H  0.36279684  0.96789980  0.27605359     0.15800
F2130       F  0.35969675  0.06214025  0.25062716    -0.23600
H2131       H  0.30655969  0.05610042  0.26502827     0.17600
C2132       C  0.26280646  0.03360826  0.30289764     0.25600
C2133       C  0.23339723  0.03400788  0.30888113    -0.12100
C2134       C  0.21459098  0.01234809  0.29854874    -0.26100
C2135       C  0.22665285  0.98982360  0.28261288     0.36500
C2136       C  0.25598933  0.98966411  0.27638156    -0.27800
F2137       F  0.28001203  0.05458746  0.31393244    -0.19900
H2138       H  0.22592593  0.05158225  0.32157583     0.15800
F2139       F  0.20988622  0.96803033  0.27253908    -0.23600
H2140       H  0.26423431  0.97251053  0.26333831     0.17600
C2141       C  0.73316476  0.01195887  0.30389750    -0.27600
C2142       C  0.72371868  0.01498992  0.27538611     0.06000
C2143       C  0.74404299  0.01968686  0.25366648     0.25600
C2144       C  0.77328392  0.01902881  0.26010940    -0.12100
C2145       C  0.78304978  0.01354199  0.28839084    -0.26100
C2146       C  0.76243640  0.01204096  0.31048254     0.36400
C2147       C  0.69268614  0.01372008  0.26860660     0.06000
F2148       F  0.73567193  0.02429536  0.22605569    -0.19900
H2149       H  0.78797304  0.02324153  0.24269013     0.15800
F2150       F  0.77052710  0.01048767  0.33849968    -0.23600
H2151       H  0.71776695  0.00974876  0.32116452     0.17600
C2152       C  0.67568083  0.99018517  0.27727583     0.25600
C2153       C  0.64627817  0.98953034  0.27150948    -0.12100
C2154       C  0.63321888  0.01242618  0.25725076    -0.26100
C2155       C  0.65037951  0.03574327  0.24813760     0.36500
C2156       C  0.67982691  0.03624585  0.25369413    -0.27800
F2157       F  0.68753255  0.96774340  0.29118358    -0.19900
H2158       H  0.63359843  0.97137586  0.27888602     0.15800
F2159       F  0.63876155  0.05807722  0.23385392    -0.23600
H2160       H  0.69254407  0.05457741  0.24686544     0.17600
C2161       C  0.41768203  0.93530788  0.39549917    -0.27600
C2162       C  0.41075536  0.90667481  0.38895455     0.06000
C2163       C  0.41770970  0.89595556  0.36165429     0.25600
C2164       C  0.43063030  0.91368332  0.34116489    -0.12100
C2165       C  0.43707250  0.94245405  0.34739582    -0.26100
C2166       C  0.43067857  0.95313620  0.37491134     0.36400
C2167       C  0.39466681  0.88853390  0.40978833     0.06000
F2168       F  0.41212279  0.86822203  0.35479804    -0.19900
H2169       H  0.43573124  0.90477887  0.32032639     0.15800
F2170       F  0.43577738  0.98103199  0.38148188    -0.23600
H2171       H  0.41214654  0.94411990  0.41625159     0.17600
C2172       C  0.40396081  0.88536988  0.43840307     0.25600
C2173       C  0.38812194  0.86837614  0.45764619    -0.12100
C2174       C  0.36291655  0.85396664  0.44870067    -0.26100
C2175       C  0.35385997  0.85700335  0.41993195     0.36500
C2176       C  0.36949645  0.87423563  0.40086763    -0.27800
F2177       F  0.42865675  0.89815466  0.44758056    -0.19900
H2178       H  0.39549907  0.86679695  0.47968855     0.15800
F2179       F  0.33033622  0.84278403  0.40986311    -0.23600
H2180       H  0.36184423  0.87647601  0.37896339     0.17600
C2181       C  0.58484658  0.86620606  0.42031322    -0.27600
C2182       C  0.59836273  0.89164650  0.41121357     0.06000
C2183       C  0.62433505  0.90041697  0.42375187     0.25600
C2184       C  0.63723904  0.88343811  0.44442770    -0.12100
C2185       C  0.62442129  0.85747153  0.45293747    -0.26100
C2186       C  0.59777710  0.84912123  0.44119555     0.36400
C2187       C  0.58528514  0.90946681  0.38897495     0.06000
F2188       F  0.63697112  0.92564810  0.41623007    -0.19900
H2189       H  0.65730490  0.89066463  0.45391176     0.15800
F2190       F  0.58481803  0.82414085  0.44907574    -0.23600
H2191       H  0.56457977  0.85944574  0.41090718     0.17600
C2192       C  0.59900593  0.91380910  0.36247325     0.25600
C2193       C  0.58657860  0.93115305  0.34164765    -0.12100
C2194       C  0.56088026  0.94521857  0.34737573    -0.26100
C2195       C  0.54800150  0.94192275  0.37461399     0.36500
C2196       C  0.55986788  0.92363221  0.39495374    -0.27800
F2197       F  0.62436114  0.90124866  0.35677346    -0.19900
H2198       H  0.59721606  0.93381456  0.32111749     0.15800
F2199       F  0.52379503  0.95598013  0.38155282    -0.23600
H2200       H  0.54957149  0.92096029  0.41566049     0.17600
C2201       C  0.43021007  0.10226047  0.39340092    -0.27600
C2202       C  0.40570705  0.11769401  0.38602422     0.06000
C2203       C  0.39607667  0.11704811  0.35725958     0.25600
C2204       C  0.41059531  0.10115952  0.33658920    -0.12100
C2205       C  0.43496185  0.08544506  0.34402760    -0.26100
C2206       C  0.44470702  0.08632488  0.37278526     0.36400
C2207       C  0.39102090  0.13507360  0.40820517     0.06000
F2208       F  0.37230020  0.13131874  0.34913849    -0.19900
H2209       H  0.40246082  0.10091424  0.31473381     0.15800
F2210       F  0.46867303  0.07242992  0.38100812    -0.23600
H2211       H  0.43860610  0.10301937  0.41514164     0.17600
C2212       C  0.38548773  0.12405670  0.43594595     0.25600
C2213       C  0.37232566  0.14098191  0.45671467    -0.12100
C2214       C  0.36451869  0.16904177  0.45025585    -0.26100
C2215       C  0.36991077  0.18011751  0.42276280     0.36500
C2216       C  0.38313958  0.16331133  0.40197620    -0.27800
F2217       F  0.39219407  0.09676763  0.44282864    -0.19900
H2218       H  0.36767741  0.13197958  0.47768307     0.15800
F2219       F  0.36277575  0.20735708  0.41622029    -0.23600
H2220       H  0.38771349  0.17260896  0.38112365     0.17600
C2221       C  0.52283154  0.25555302  0.22388494    -0.27600
C2222       C  0.50068630  0.23610134  0.21718890     0.06000
C2223       C  0.47663012  0.24564849  0.20214452     0.25600
C2224       C  0.47456386  0.27430676  0.19416525    -0.12100
C2225       C  0.49638873  0.29437188  0.20131513    -0.26100
C2226       C  0.52072689  0.28436496  0.21618319     0.36400
C2227       C  0.50253779  0.20577147  0.22569490     0.06000
F2228       F  0.45514742  0.22706878  0.19488296    -0.19900
H2229       H  0.45549242  0.28013080  0.18270267     0.15800
F2230       F  0.54233138  0.30264846  0.22378169    -0.23600
H2231       H  0.54156770  0.24848236  0.23552038     0.17600
C2232       C  0.52429498  0.18854213  0.21482536     0.25600
C2233       C  0.52439177  0.15931138  0.22109468    -0.12100
C2234       C  0.50268363  0.14682096  0.23813749    -0.26100
C2235       C  0.48146217  0.16433259  0.24973913     0.36500
C2236       C  0.48142723  0.19354744  0.24349646    -0.27800
F2237       F  0.54457000  0.19972686  0.19701968    -0.19900
H2238       H  0.54089082  0.14625037  0.21176252     0.15800
F2239       F  0.46086386  0.15325164  0.26722088    -0.23600
H2240       H  0.46468137  0.20665999  0.25227729     0.17600
C2241       C  0.51897819  0.83321105  0.23373591    -0.27600
C2242       C  0.49568096  0.82225290  0.21776339     0.06000
C2243       C  0.47201929  0.83977143  0.21270189     0.25600
C2244       C  0.47202526  0.86782266  0.22297079    -0.12100
C2245       C  0.49560916  0.87909192  0.23841187    -0.26100
C2246       C  0.51901405  0.86131320  0.24402133     0.36400
C2247       C  0.49555698  0.79211468  0.20787400     0.06000
F2248       F  0.44922417  0.83005977  0.19710225    -0.19900
H2249       H  0.45387071  0.88105841  0.21791873     0.15800
F2250       F  0.54182138  0.87093678  0.25963153    -0.23600
H2251       H  0.53707179  0.81982543  0.23856883     0.17600
C2252       C  0.51891002  0.78079596  0.19293295     0.25600
C2253       C  0.51919452  0.75177030  0.18562252    -0.12100
C2254       C  0.49632475  0.73325499  0.19334903    -0.26100
C2255       C  0.47317004  0.74487341  0.20866942     0.36500
C2256       C  0.47261399  0.77393798  0.21524140    -0.27800
F2257       F  0.54175949  0.79767528  0.18588748    -0.19900
H2258       H  0.53812521  0.74392685  0.17524022     0.15800
F2259       F  0.45160451  0.72783484  0.21869440    -0.23600
H2260       H  0.45477966  0.78200830  0.22746617     0.17600
C2261       C  0.62060240  0.11086831  0.05922640    -0.27600
C2262       C  0.62900123  0.11209961  0.08832748     0.06000
C2263       C  0.65528233  0.12600665  0.09508969     0.25600
C2264       C  0.67138383  0.13997826  0.07352942    -0.12100
C2265       C  0.66255629  0.13893422  0.04459612    -0.26100
C2266       C  0.63739119  0.12353147  0.03761686     0.36400
C2267       C  0.61028882  0.09846193  0.11096074     0.06000
F2268       F  0.66598344  0.12518843  0.12226196    -0.19900
H2269       H  0.69104695  0.15119516  0.07933098     0.15800
F2270       F  0.62840537  0.12148961  0.00990356    -0.23600
H2271       H  0.60070982  0.10026547  0.05312201     0.17600
C2272       C  0.60433947  0.11231025  0.13719034     0.25600
C2273       C  0.58608501  0.09943122  0.15755372    -0.12100
C2274       C  0.57292265  0.07261426  0.15235279    -0.26100
C2275       C  0.57880499  0.05877352  0.12616567     0.36500
C2276       C  0.59718789  0.07157223  0.10586095    -0.27800
F2277       F  0.61534876  0.13872999  0.14292156    -0.19900
H2278       H  0.58192146  0.11074339  0.17739361     0.15800
F2279       F  0.56761902  0.03240911  0.12049284    -0.23600
H2280       H  0.60149334  0.06015207  0.08613057     0.17600
C2281       C  0.56931373  0.92354064  0.10675548    -0.27600
C2282       C  0.59728745  0.91465757  0.11252773     0.06000
C2283       C  0.60900089  0.91931693  0.14003524     0.25600
C2284       C  0.59319634  0.93331808  0.16117358    -0.12100
C2285       C  0.56548382  0.94320503  0.15521004    -0.26100
C2286       C  0.55354338  0.93775974  0.12776895     0.36400
C2287       C  0.61459646  0.90165027  0.08948347     0.06000
F2288       F  0.63573729  0.91021564  0.14642601    -0.19900
H2289       H  0.60293246  0.93695654  0.18206607     0.15800
F2290       F  0.52654537  0.94594445  0.12122532    -0.23600
H2291       H  0.55990197  0.92000882  0.08568686     0.17600
C2292       C  0.60530127  0.87653470  0.07549403     0.25600
C2293       C  0.62181914  0.86475518  0.05360972    -0.12100
C2294       C  0.64794079  0.87767306  0.04543440    -0.26100
C2295       C  0.65739797  0.90260783  0.05967472     0.36500
C2296       C  0.64074011  0.91451725  0.08139453    -0.27800
F2297       F  0.58072366  0.86293051  0.08358048    -0.19900
H2298       H  0.61421734  0.84541478  0.04307422     0.15800
F2299       F  0.68328093  0.91474165  0.05358824    -0.23600
H2300       H  0.64832041  0.93378457  0.09208075     0.17600
C2301       C  0.36328277  0.91964437  0.06463455    -0.27600
C2302       C  0.36482146  0.90896784  0.09290971     0.06000
C2303       C  0.34963242  0.88346696  0.09933182     0.25600
C2304       C  0.33359881  0.86917885  0.07797834    -0.12100
C2305       C  0.33269062  0.87951721  0.04952234    -0.26100
C2306       C  0.34805450  0.90488455  0.04308232     0.36400
C2307       C  0.38353650  0.92360816  0.11492559     0.06000
F2308       F  0.35122516  0.87158575  0.12592269    -0.19900
H2309       H  0.32208756  0.84974860  0.08375645     0.15800
F2310       F  0.34994404  0.91469006  0.01566883    -0.23600
H2311       H  0.37450468  0.93926573  0.05894783     0.17600
C2312       C  0.41147205  0.93306410  0.10786841     0.25600
C2313       C  0.42928965  0.94605176  0.12857363    -0.12100
C2314       C  0.42001018  0.94989965  0.15701250    -0.26100
C2315       C  0.39183292  0.94084230  0.16407439     0.36500
C2316       C  0.37393027  0.92792400  0.14324816    -0.27800
F2317       F  0.42207581  0.92891155  0.08108670    -0.19900
H2318       H  0.45073240  0.95264492  0.12237239     0.15800
F2319       F  0.38123093  0.94497616  0.19089576    -0.23600
H2320       H  0.35237036  0.92151515  0.14925149     0.17600
C2321       C  0.34895352  0.12692461  0.09794756    -0.27600
C2322       C  0.37168285  0.10956129  0.08947440     0.06000
C2323       C  0.37647240  0.10522243  0.05987932     0.25600
C2324       C  0.35952443  0.11901841  0.03940821    -0.12100
C2325       C  0.33781856  0.13750290  0.04807183    -0.26100
C2326       C  0.33227490  0.14089876  0.07750833     0.36400
C2327       C  0.39049233  0.09669533  0.11164529     0.06000
F2328       F  0.39824920  0.08869760  0.05071156    -0.19900
H2329       H  0.36408670  0.11612949  0.01676281     0.15800
F2330       F  0.31052630  0.15751513  0.08649781    -0.23600
H2331       H  0.34414580  0.12979312  0.12052719     0.17600
C2332       C  0.40100743  0.11321065  0.13487512     0.25600
C2333       C  0.41852764  0.10096702  0.15574207    -0.12100
C2334       C  0.42620912  0.07222892  0.15367847    -0.26100
C2335       C  0.41554227  0.05556273  0.13076517     0.36500
C2336       C  0.39780336  0.06773017  0.10997315    -0.27800
F2337       F  0.39485306  0.14136122  0.13715971    -0.19900
H2338       H  0.42645661  0.11407924  0.17335516     0.15800
F2339       F  0.42132353  0.02726418  0.12915379    -0.23600
H2340       H  0.38933792  0.05435223  0.09283637     0.17600
C2341       C  0.81842174  0.21482661  0.48483820    -0.27600
C2342       C  0.80109868  0.23001633  0.50399704     0.06000
C2343       C  0.81406086  0.25003941  0.52278974     0.25600
C2344       C  0.84352123  0.25523773  0.52168467    -0.12100
C2345       C  0.86050098  0.24092140  0.50170043    -0.26100
C2346       C  0.84785069  0.22030885  0.48352106     0.36400
C2347       C  0.76963752  0.22516915  0.50375836     0.06000
F2348       F  0.79827733  0.26531975  0.54159104    -0.19900
H2349       H  0.85302880  0.27098558  0.53606754     0.15800
F2350       F  0.86401991  0.20488823  0.46514212    -0.23600
H2351       H  0.80914599  0.19858155  0.47089298     0.17600
C2352       C  0.75450116  0.22362426  0.47759563     0.25600
C2353       C  0.72498532  0.21863926  0.47740974    -0.12100
C2354       C  0.70964078  0.21522661  0.50327667    -0.26100
C2355       C  0.72468920  0.21888876  0.52947129     0.36500
C2356       C  0.75438687  0.22279641  0.52962776    -0.27800
F2357       F  0.76799965  0.22827475  0.45214632    -0.19900
H2358       H  0.71418745  0.21878453  0.45681168     0.15800
F2359       F  0.71072674  0.21963969  0.55500849    -0.23600
H2360       H  0.76540491  0.22423242  0.55012303     0.17600
C2361       C  0.57253001  0.10142783  0.39367191    -0.27600
C2362       C  0.57670543  0.13054533  0.38732383     0.06000
C2363       C  0.57005256  0.14025591  0.35942223     0.25600
C2364       C  0.56061783  0.12096429  0.33812526    -0.12100
C2365       C  0.55688886  0.09171107  0.34436528    -0.26100
C2366       C  0.56238849  0.08228984  0.37266297     0.36400
C2367       C  0.58955880  0.15017100  0.40933598     0.06000
F2368       F  0.57210933  0.16850993  0.35294503    -0.19900
H2369       H  0.55559198  0.12902524  0.31687642     0.15800
F2370       F  0.55856586  0.05440312  0.37996761    -0.23600
H2371       H  0.57766112  0.09331816  0.41487278     0.17600
C2372       C  0.57930343  0.15088469  0.43779863     0.25600
C2373       C  0.59314334  0.16788065  0.45865770    -0.12100
C2374       C  0.61768716  0.18428064  0.45175587    -0.26100
C2375       C  0.62740624  0.18413106  0.42301464     0.36500
C2376       C  0.61348374  0.16727765  0.40221336    -0.27800
F2377       F  0.55603746  0.13494601  0.44555215    -0.19900
H2378       H  0.58522710  0.16722835  0.48050537     0.15800
F2379       F  0.65051055  0.20011147  0.41485805    -0.23600
H2380       H  0.62199612  0.16695773  0.38056912     0.17600
C2381       C  0.58176802  0.29470721  0.53793407    -0.27600
C2382       C  0.59275124  0.32061647  0.52681817     0.06000
C2383       C  0.61623533  0.31992860  0.50804740     0.25600
C2384       C  0.62869974  0.29404671  0.50095663    -0.12100
C2385       C  0.61829514  0.26812665  0.51247204    -0.26100
C2386       C  0.59438167  0.26862112  0.53084939     0.36400
C2387       C  0.57864718  0.34822299  0.53259351     0.06000
F2388       F  0.62668339  0.34428046  0.49580099    -0.19900
H2389       H  0.64667856  0.29431926  0.48629982     0.15800
F2390       F  0.58378284  0.24420821  0.54278386    -0.23600
H2391       H  0.56356113  0.29472236  0.55230425     0.17600
C2392       C  0.54946041  0.35145570  0.52617606     0.25600
C2393       C  0.53780014  0.37870824  0.52500200    -0.12100
C2394       C  0.55483916  0.40310710  0.53047877    -0.26100
C2395       C  0.58326711  0.39984570  0.53956067     0.36500
C2396       C  0.59508897  0.37251600  0.54054721    -0.27800
F2397       F  0.53283241  0.32859887  0.51855909    -0.19900
H2398       H  0.51567417  0.38093661  0.51847851     0.15800
F2399       F  0.60015657  0.42308736  0.54514139    -0.23600
H2400       H  0.61753631  0.37043555  0.54597386     0.17600
C2401       C  0.31097569  0.98327118  0.73847214    -0.27600
C2402       C  0.29921450  0.00667667  0.72397464     0.06000
C2403       C  0.31665860  0.03055861  0.71779430     0.25600
C2404       C  0.34556386  0.03075840  0.72538384    -0.12100
C2405       C  0.35771320  0.00717337  0.73934067    -0.26100
C2406       C  0.33997793  0.98350283  0.74629912     0.36400
C2407       C  0.26874741  0.00631450  0.71533865     0.06000
F2408       F  0.30593999  0.05330907  0.70345657    -0.19900
H2409       H  0.35866008  0.04914764  0.71946632     0.15800
F2410       F  0.35050921  0.96078206  0.76084310    -0.23600
H2411       H  0.29761853  0.96488424  0.74381581     0.17600
C2412       C  0.25787988  0.98536965  0.69651554     0.25600
C2413       C  0.22898253  0.98526476  0.68851540    -0.12100
C2414       C  0.21022908  0.00614945  0.69911527    -0.26100
C2415       C  0.22191134  0.02804171  0.71674657     0.36500
C2416       C  0.25065909  0.02778661  0.72505337    -0.27800
F2417       F  0.27544461  0.96552640  0.68514107    -0.19900
H2418       H  0.22199980  0.96901467  0.67354358     0.15800
F2419       F  0.20539943  0.04961469  0.72635950    -0.23600
H2420       H  0.25886547  0.04443431  0.73918293     0.17600
C2421       C  0.67027469  0.98889292  0.72509988    -0.27600
C2422       C  0.68271417  0.01404294  0.71409724     0.06000
C2423       C  0.66654682  0.03901317  0.71271254     0.25600
C2424       C  0.63807286  0.03851717  0.72177189    -0.12100
C2425       C  0.62541252  0.01321639  0.73266175    -0.26100
C2426       C  0.64203282  0.98845583  0.73464099     0.36400
C2427       C  0.71281647  0.01380192  0.70484579     0.06000
F2428       F  0.67805757  0.06363138  0.70201280    -0.19900
H2429       H  0.62579829  0.05785045  0.71969274     0.15800
F2430       F  0.63122329  0.96386090  0.74605730    -0.23600
H2431       H  0.68269325  0.96960495  0.72671825     0.17600
C2432       C  0.73332155  0.03161997  0.71801961     0.25600
C2433       C  0.76221855  0.02894425  0.71119486    -0.12100
C2434       C  0.77152401  0.00809462  0.69148870    -0.26100
C2435       C  0.75034852  0.99091440  0.67758842     0.36500
C2436       C  0.72147238  0.99386620  0.68438615    -0.27800
F2437       F  0.72557498  0.05046516  0.73866488    -0.19900
H2438       H  0.77767418  0.04260133  0.72221984     0.15800
F2439       F  0.75657931  0.97097868  0.65767993    -0.23600
H2440       H  0.70571534  0.98006627  0.67396516     0.17600
C2441       C  0.40634239  0.08673518  0.60601307    -0.27600
C2442       C  0.40096611  0.11564103  0.61171741     0.06000
C2443       C  0.40826141  0.12687566  0.63890635     0.25600
C2444       C  0.42100732  0.10959360  0.65969881    -0.12100
C2445       C  0.42681584  0.08083130  0.65383025    -0.26100
C2446       C  0.41914219  0.06945021  0.62680286     0.36400
C2447       C  0.38762958  0.13386079  0.58936643     0.06000
F2448       F  0.40378710  0.15477499  0.64515016    -0.19900
H2449       H  0.42688362  0.11890642  0.68026800     0.15800
F2450       F  0.42325460  0.04144191  0.62074814    -0.23600
H2451       H  0.40027393  0.07740886  0.58550957     0.17600
C2452       C  0.39804180  0.13424453  0.56101284     0.25600
C2453       C  0.38511184  0.15128316  0.54013194    -0.12100
C2454       C  0.36164773  0.16843293  0.54700946    -0.26100
C2455       C  0.35182135  0.16866602  0.57561352     0.36500
C2456       C  0.36445310  0.15125589  0.59638105    -0.27800
F2457       F  0.42107588  0.11857276  0.55357753    -0.19900
H2458       H  0.39343892  0.15070636  0.51847613     0.15800
F2459       F  0.33065362  0.18636100  0.58385110    -0.23600
H2460       H  0.35603795  0.15136676  0.61806025     0.17600
C2461       C  0.55623213  0.10239282  0.60341244    -0.27600
C2462       C  0.57948307  0.12045376  0.61053472     0.06000
C2463       C  0.59015433  0.12011911  0.63890162     0.25600
C2464       C  0.57735517  0.10249734  0.65970333    -0.12100
C2465       C  0.55392937  0.08445290  0.65264251    -0.26100
C2466       C  0.54372925  0.08441372  0.62402294     0.36400
C2467       C  0.59233633  0.13963945  0.58839737     0.06000
F2468       F  0.61337164  0.13635731  0.64640482    -0.19900
H2469       H  0.58603281  0.10283921  0.68134686     0.15800
F2470       F  0.52132576  0.06740705  0.61585186    -0.23600
H2471       H  0.54737549  0.10246833  0.58184518     0.17600
C2472       C  0.59868046  0.12942214  0.56064148     0.25600
C2473       C  0.61139131  0.14754839  0.54030530    -0.12100
C2474       C  0.61843609  0.17583706  0.54743482    -0.26100
C2475       C  0.61215132  0.18623552  0.57492205     0.36500
C2476       C  0.59874987  0.16837772  0.59507237    -0.27800
F2477       F  0.59393998  0.10160331  0.55358337    -0.19900
H2478       H  0.61672398  0.13923247  0.51927625     0.15800
F2479       F  0.61969085  0.21335453  0.58249838    -0.23600
H2480       H  0.59370800  0.17692804  0.61606253     0.17600
C2481       C  0.62753022  0.87994682  0.59531351    -0.27600
C2482       C  0.60215337  0.89404500  0.58834328     0.06000
C2483       C  0.59032404  0.89054241  0.56073201     0.25600
C2484       C  0.60364916  0.87316716  0.54059489    -0.12100
C2485       C  0.62872200  0.85837530  0.54766398    -0.26100
C2486       C  0.64058065  0.86206518  0.57541605     0.36400
C2487       C  0.58752302  0.91143652  0.61023992     0.06000
F2488       F  0.56543123  0.90330599  0.55342321    -0.19900
H2489       H  0.59427167  0.87169720  0.51933550     0.15800
F2490       F  0.66429090  0.84792576  0.58386190    -0.23600
H2491       H  0.63717946  0.88258203  0.61639571     0.17600
C2492       C  0.58233102  0.90031454  0.63785371     0.25600
C2493       C  0.56735379  0.91619948  0.65796958    -0.12100
C2494       C  0.55729739  0.94352821  0.65110769    -0.26100
C2495       C  0.56288511  0.95490267  0.62361983     0.36500
C2496       C  0.57794318  0.93894908  0.60343747    -0.27800
F2497       F  0.59100714  0.87373300  0.64519441    -0.19900
H2498       H  0.56330732  0.90685293  0.67892821     0.15800
F2499       F  0.55445001  0.98160173  0.61643971    -0.23600
H2500       H  0.58226495  0.94815286  0.58247661     0.17600
C2501       C  0.40322871  0.89337211  0.63663244    -0.27600
C2502       C  0.40646164  0.90113406  0.60761135     0.06000
C2503       C  0.42099238  0.92686064  0.60096617     0.25600
C2504       C  0.43192586  0.94437558  0.62286604    -0.12100
C2505       C  0.42881229  0.93671086  0.65197769    -0.26100
C2506       C  0.41420545  0.91086801  0.65863357     0.36400
C2507       C  0.39317093  0.88329464  0.58451309     0.06000
F2508       F  0.42511334  0.93488778  0.57320232    -0.19900
H2509       H  0.44306516  0.96396162  0.61687451     0.15800
F2510       F  0.41068036  0.90219616  0.68629350    -0.23600
H2511       H  0.39172622  0.87389840  0.64232907     0.17600
C2512       C  0.39667293  0.85342779  0.58354654     0.25600
C2513       C  0.38228466  0.83695864  0.56260808    -0.12100
C2514       C  0.36426656  0.85003059  0.54249963    -0.26100
C2515       C  0.36166530  0.87985079  0.54276160     0.36500
C2516       C  0.37584465  0.89624981  0.56364169    -0.27800
F2517       F  0.41407638  0.84024696  0.60268834    -0.19900
H2518       H  0.38471077  0.81399347  0.56246395     0.15800
F2519       F  0.34520700  0.89310038  0.52284365    -0.23600
H2520       H  0.37267837  0.91911894  0.56392284     0.17600
C2521       C  0.51464153  0.19092063  0.76033473    -0.27600
C2522       C  0.49095500  0.20238679  0.77468244     0.06000
C2523       C  0.46786439  0.18407652  0.78177407     0.25600
C2524       C  0.46838079  0.15515415  0.77440513    -0.12100
C2525       C  0.49213501  0.14355370  0.76036070    -0.26100
C2526       C  0.51552277  0.16176907  0.75363008     0.36400
C2527       C  0.49069801  0.23320374  0.78267383     0.06000
F2528       F  0.44524004  0.19383850  0.79690022    -0.19900
H2529       H  0.45040837  0.14159113  0.78058574     0.15800
F2530       F  0.53918958  0.15157786  0.74050534    -0.23600
H2531       H  0.53259434  0.20457654  0.75431174     0.17600
C2532       C  0.51480754  0.24635669  0.79546029     0.25600
C2533       C  0.51486443  0.27544015  0.80216740    -0.12100
C2534       C  0.49069931  0.29236700  0.79672663    -0.26100
C2535       C  0.46632926  0.27889627  0.78430805     0.36500
C2536       C  0.46641682  0.24977100  0.77737802    -0.27800
F2537       F  0.53845474  0.23104149  0.80174138    -0.19900
H2538       H  0.53448504  0.28426259  0.81084473     0.15800
F2539       F  0.44259000  0.29412110  0.77809077    -0.23600
H2540       H  0.44763577  0.24030238  0.76721208     0.17600
C2541       C  0.51640085  0.76842763  0.76611232    -0.27600
C2542       C  0.49199999  0.78528181  0.76850380     0.06000
C2543       C  0.46724651  0.77337108  0.78121746     0.25600
C2544       C  0.46743131  0.74554715  0.79223200    -0.12100
C2545       C  0.49241965  0.72901825  0.79112686    -0.26100
C2546       C  0.51684118  0.74095267  0.77761800     0.36400
C2547       C  0.49347995  0.81587129  0.76008849     0.06000
F2548       F  0.44312040  0.78891204  0.78400633    -0.19900
H2549       H  0.44776485  0.73749115  0.80142804     0.15800
F2550       F  0.54140235  0.72598362  0.77561209    -0.23600
H2551       H  0.53551354  0.77678102  0.75574301     0.17600
C2552       C  0.51696216  0.83306961  0.76882489     0.25600
C2553       C  0.51733707  0.86233212  0.76329219    -0.12100
C2554       C  0.49414222  0.87525376  0.74944372    -0.26100
C2555       C  0.47117106  0.85798355  0.73960569     0.36500
C2556       C  0.47098587  0.82851026  0.74474479    -0.27800
F2557       F  0.53883106  0.82196795  0.78431706    -0.19900
H2558       H  0.53523337  0.87512214  0.77122793     0.15800
F2559       F  0.44884298  0.86958229  0.72522969    -0.23600
H2560       H  0.45302756  0.81563313  0.73712952     0.17600
C2561       C  0.38480692  0.13921016  0.92197320    -0.27600
C2562       C  0.37435420  0.11355293  0.90992170     0.06000
C2563       C  0.34785566  0.10233366  0.91930322     0.25600
C2564       C  0.33190540  0.11692657  0.93982334    -0.12100
C2565       C  0.34220159  0.14273529  0.95166400    -0.26100
C2566       C  0.36894437  0.15370952  0.94266521     0.36400
C2567       C  0.39113862  0.09874651  0.88755368     0.06000
F2568       F  0.33776402  0.07685428  0.90923204    -0.19900
H2569       H  0.31142976  0.10798772  0.94647079     0.15800
F2570       F  0.38022990  0.17789168  0.95454398    -0.23600
H2571       H  0.40527485  0.14810225  0.91523314     0.17600
C2572       C  0.37843815  0.09084701  0.86118144     0.25600
C2573       C  0.39457557  0.07749250  0.83999182    -0.12100
C2574       C  0.42355100  0.07138977  0.84478061    -0.26100
C2575       C  0.43626383  0.07913731  0.87120619     0.36500
C2576       C  0.42020700  0.09292841  0.89225880    -0.27800
F2577       F  0.35058200  0.09664173  0.85560179    -0.19900
H2578       H  0.38429353  0.07167452  0.81984588     0.15800
F2579       F  0.46434266  0.07402072  0.87642226    -0.23600
H2580       H  0.43041962  0.09889154  0.91239159     0.17600
C2581       C  0.41259268  0.93123459  0.89437739    -0.27600
C2582       C  0.38500488  0.92093032  0.88746956     0.06000
C2583       C  0.37554798  0.92241154  0.85878482     0.25600
C2584       C  0.39329921  0.93435482  0.83754866    -0.12100
C2585       C  0.42097067  0.94476095  0.84438375    -0.26100
C2586       C  0.43055599  0.94271427  0.87313293     0.36400
C2587       C  0.36718710  0.90684357  0.90993461     0.06000
F2588       F  0.34959571  0.91130746  0.85109547    -0.19900
H2589       H  0.38530637  0.93547853  0.81567965     0.15800
F2590       F  0.45757217  0.95092803  0.88067995    -0.23600
H2591       H  0.42042127  0.92997342  0.91630899     0.17600
C2592       C  0.37829448  0.88400579  0.92584065     0.25600
C2593       C  0.36163665  0.87030299  0.94670936    -0.12100
C2594       C  0.33377315  0.87941219  0.95263059    -0.26100
C2595       C  0.32268400  0.90253810  0.93716605     0.36500
C2596       C  0.33919311  0.91593754  0.91567767    -0.27800
F2597       F  0.40514169  0.87456995  0.92078734    -0.19900
H2598       H  0.37061733  0.85255241  0.95846352     0.15800
F2599       F  0.29571312  0.91157580  0.94229065    -0.23600
H2600       H  0.33027500  0.93356647  0.90370425     0.17600
C2601       C  0.64004642  0.88598398  0.89788451    -0.27600
C2602       C  0.62068098  0.90740801  0.90538914     0.06000
C2603       C  0.61899984  0.91567254  0.93448617     0.25600
C2604       C  0.63609422  0.90264568  0.95536650    -0.12100
C2605       C  0.65516872  0.88095108  0.94793408    -0.26100
C2606       C  0.65716580  0.87296020  0.91877240     0.36400
C2607       C  0.60198658  0.92053703  0.88298672     0.06000
F2608       F  0.60082849  0.93638668  0.94287554    -0.19900
H2609       H  0.63363640  0.90903550  0.97758622     0.15800
F2610       F  0.67577892  0.85271292  0.91025468    -0.23600
H2611       H  0.64157676  0.87883828  0.87579919     0.17600
C2612       C  0.61301342  0.92893156  0.85601087     0.25600
C2613       C  0.59509481  0.94092419  0.83516320    -0.12100
C2614       C  0.56599941  0.94556103  0.84092976    -0.26100
C2615       C  0.55499524  0.93733694  0.86788640     0.36500
C2616       C  0.57271224  0.92461456  0.88842591    -0.27800
F2617       F  0.64131136  0.92650380  0.85008227    -0.19900
H2618       H  0.60422798  0.94740149  0.81472793     0.15800
F2619       F  0.52696559  0.94108283  0.87425248    -0.23600
H2620       H  0.56338684  0.91774525  0.90862326     0.17600
C2621       C  0.61053810  0.09353586  0.85816857    -0.27600
C2622       C  0.60146973  0.09333709  0.88683471     0.06000
C2623       C  0.57491855  0.08087291  0.89396914     0.25600
C2624       C  0.55772223  0.06854725  0.87258038    -0.12100
C2625       C  0.56640589  0.06914783  0.84362051    -0.26100
C2626       C  0.59306972  0.08190827  0.83659604     0.36400
C2627       C  0.61864559  0.10845650  0.90874784     0.06000
F2628       F  0.56554924  0.08090988  0.92158670    -0.19900
H2629       H  0.53731165  0.05905776  0.87867239     0.15800
F2630       F  0.60230552  0.08337972  0.80896160    -0.23600
H2631       H  0.63080725  0.10354888  0.85240386     0.17600
C2632       C  0.64605940  0.09918960  0.91641479     0.25600
C2633       C  0.66230521  0.11457789  0.93663500    -0.12100
C2634       C  0.65153068  0.13953449  0.94908836    -0.26100
C2635       C  0.62401659  0.14869198  0.94123860     0.36500
C2636       C  0.60774078  0.13312999  0.92133826    -0.27800
F2637       F  0.65693924  0.07523226  0.90450934    -0.19900
H2638       H  0.68351840  0.10728239  0.94214508     0.15800
F2639       F  0.61254209  0.17233254  0.95316256    -0.23600
H2640       H  0.58665303  0.14052251  0.91543207     0.17600
loop_ 
_geom_bond_atom_site_label_1 
_geom_bond_atom_site_label_2 
_geom_bond_distance 
_geom_bond_site_symmetry_2 
_ccdc_geom_bond_type 
O1          Zr37   2.423       .  S
O1           C12   1.291       .  A
O2          Zr36   2.447       .  S
O2           C13   1.294       .  A
O3           Zr9   2.426       .  S
O3           C14   1.290       .  A
O4           Zr9   2.436       .  S
O4           C15   1.292       .  A
O5          Zr39   2.448       .  S
O5           C15   1.295       .  A
O6          Zr38   2.435       .  S
O6           C14   1.292   1_565  A
O7           Zr9   2.436       .  S
O7           C13   1.292       .  A
O8           Zr9   2.433       .  S
O8           C12   1.291       .  A
Zr9          O10   2.337       .  S
Zr9          O11   2.340       .  S
Zr9          O19   2.340       .  S
Zr9          O17   2.339       .  S
O10         Zr36   2.340       .  S
O10         Zr39   2.332       .  S
O11         Zr37   2.341       .  S
O11         Zr38   2.329   1_545  S
C12        C2625   1.478       .  S
C13        C2465   1.490       .  S
C14        C2425   1.478       .  S
C15        C2525   1.485       .  S
H16          O17   0.965       .  S
O17         Zr36   2.330       .  S
O17         Zr38   2.340   1_545  S
H18          O19   0.965       .  S
O19         Zr37   2.342       .  S
O19         Zr39   2.342       .  S
O20         Zr36   2.444   1_565  S
O20          C43   1.295       .  A
O21         Zr37   2.437   1_565  S
O21          C44   1.292       .  A
O22         Zr38   2.421       .  S
O22          C45   1.290       .  A
O23         Zr39   2.442       .  S
O23          C46   1.293       .  A
O24         Zr39   2.430       .  S
O24          C47   1.292       .  A
O25         Zr38   2.437       .  S
O25          C48   1.292       .  A
O26         Zr40   2.444       .  S
O26          C49   1.293       .  A
O27         Zr40   2.441       .  S
O27          C50   1.293   1_565  A
O28         Zr38   2.426       .  S
O28          C49   1.291       .  A
O29         Zr39   2.438       .  S
O29          C50   1.293       .  A
O30         Zr36   2.443   1_565  S
O30          C45   1.293       .  A
O31         Zr37   2.451   1_565  S
O31          C48   1.295       .  A
O32         Zr37   2.443       .  S
O32          C47   1.293       .  A
O33         Zr36   2.436       .  S
O33          C46   1.292       .  A
O34         Zr40   2.435       .  S
O34          C43   1.292       .  A
O35         Zr40   2.454       .  S
O35          C44   1.295       .  A
Zr36         O42   2.340   1_545  S
Zr36         O54   2.335       .  S
Zr37         O41   2.339       .  S
Zr37         O52   2.334   1_545  S
Zr38         O42   2.334       .  S
Zr38         O52   2.347       .  S
Zr39         O41   2.342       .  S
Zr39         O54   2.343       .  S
Zr40         O41   2.335   1_565  S
Zr40         O42   2.339       .  S
Zr40         O54   2.351   1_565  S
Zr40         O52   2.344       .  S
C43        C2505   1.489       .  S
C44        C2585   1.490       .  S
C45        C2494   1.477       .  S
C46        C2445   1.479       .  S
C47        C2574   1.477       .  S
C48        C2614   1.485       .  S
C49        C2554   1.477       .  S
C50        C2405   1.481       .  S
H51          O52   0.966       .  S
H53          O54   0.964       .  S
C55          C56   1.537       .  S
C55          C61   1.525       .  S
C55          C59   1.539       .  S
C55        C2354   1.523       .  S
C56          H63   1.086       .  S
C56          C57   1.363       .  D
C57          C58   1.536       .  S
C57        C2474   1.467       .  S
C58          C62   1.546       .  S
C58          C60   1.550       .  S
C58          H64   1.109       .  S
C59          H65   1.083       .  S
C59          C60   1.369       .  D
C60        C2374   1.497       .  S
C61          H66   1.087       .  S
C61          C62   1.364       .  D
C62        C2385   1.489       .  S
O67        Zr103   2.472       .  S
O67          C78   1.298       .  A
O68        Zr102   2.434       .  S
O68          C79   1.292       .  A
O69         Zr75   2.441       .  S
O69          C80   1.292       .  A
O70         Zr75   2.422   1_565  S
O70          C81   1.290       .  A
O71        Zr105   2.438       .  S
O71          C81   1.293       .  A
O72        Zr104   2.441       .  S
O72          C80   1.293       .  A
O73         Zr75   2.439   1_565  S
O73          C79   1.292       .  A
O74         Zr75   2.434       .  S
O74          C78   1.291       .  A
Zr75         O76   2.347   1_545  S
Zr75         O77   2.334       .  S
Zr75         O85   2.342       .  S
Zr75         O83   2.328       .  S
O76        Zr102   2.336       .  S
O76        Zr105   2.339       .  S
O77        Zr103   2.336       .  S
O77        Zr104   2.332       .  S
C78        C2365   1.492       .  S
C79        C2165   1.480       .  S
C80        C2205   1.488       .  S
C81        C2194   1.474       .  S
H82          O83   0.965       .  S
O83        Zr102   2.345   1_545  S
O83        Zr104   2.343       .  S
H84          O85   0.965       .  S
O85        Zr103   2.343       .  S
O85        Zr105   2.356   1_545  S
O86        Zr102   2.440       .  S
O86         C109   1.292       .  A
O87        Zr103   2.447       .  S
O87         C110   1.294       .  A
O88        Zr104   2.458       .  S
O88         C111   1.296       .  A
O89        Zr105   2.446       .  S
O89         C112   1.294       .  A
O90        Zr105   2.438       .  S
O90         C113   1.293   1_565  A
O91        Zr104   2.454       .  S
O91         C114   1.296       .  A
O92        Zr106   2.436       .  S
O92         C115   1.293       .  A
O93        Zr106   2.449   1_565  S
O93         C116   1.295       .  A
O94        Zr104   2.426       .  S
O94         C115   1.291       .  A
O95        Zr105   2.450       .  S
O95         C116   1.295       .  A
O96        Zr102   2.434       .  S
O96         C111   1.292   1_565  A
O97        Zr103   2.423       .  S
O97         C114   1.290       .  A
O98        Zr103   2.438       .  S
O98         C113   1.293       .  A
O99        Zr102   2.439       .  S
O99         C112   1.293       .  A
O100       Zr106   2.475   1_565  S
O100        C109   1.300       .  A
O101       Zr106   2.468       .  S
O101        C110   1.299       .  A
Zr102       O108   2.334   1_565  S
Zr102       O120   2.344       .  S
Zr103       O107   2.343       .  S
Zr103       O118   2.352       .  S
Zr104       O108   2.339       .  S
Zr104       O118   2.352       .  S
Zr105       O107   2.335   1_565  S
Zr105       O120   2.348       .  S
Zr106       O107   2.345       .  S
Zr106       O108   2.342       .  S
Zr106       O120   2.332   1_545  S
Zr106       O118   2.346       .  S
C109       C2314   1.499       .  S
C110       C2274   1.497       .  S
C111       C2125   1.492       .  S
C112       C2245   1.483       .  S
C113       C2154   1.480       .  S
C114       C2234   1.478       .  S
C115       C2334   1.470       .  S
C116       C2285   1.490       .  S
H117        O118   0.965       .  S
H119        O120   0.964       .  S
C121        C122   1.539       .  S
C121        C127   1.526       .  S
C121        C125   1.541   1_556  S
C121       C2085   1.524   1_556  S
C122        H129   1.081       .  S
C122        C123   1.364       .  D
C123        C124   1.544   1_556  S
C123       C2594   1.482       .  S
C124        C128   1.543       .  S
C124        C126   1.549       .  S
C124        H130   1.108       .  S
C125        H131   1.086       .  S
C125        C126   1.373       .  D
C126       C2305   1.499       .  S
C127        H132   1.087   1_556  S
C127        C128   1.358   1_556  D
C128       C2105   1.483       .  S
C133        C134   1.547   1_556  S
C133        C139   1.532   1_556  S
C133        C137   1.539       .  S
C133       C2054   1.534       .  S
C134        H141   1.079       .  S
C134        C135   1.363       .  D
C135        C136   1.534   1_554  S
C135       C2294   1.482       .  S
C136        C140   1.536   1_556  S
C136        C138   1.546       .  S
C136        H142   1.109       .  S
C137        H143   1.085       .  S
C137        C138   1.372       .  D
C138       C2605   1.495       .  S
C139        H144   1.087       .  S
C139        C140   1.364       .  D
C140       C2065   1.478       .  S
C145        C146   1.535       .  S
C145        C151   1.524       .  S
C145        C149   1.541       .  S
C145       C2005   1.518       .  S
C146        H153   1.084       .  S
C146        C147   1.366       .  D
C147        C148   1.534       .  S
C147       C2185   1.472       .  S
C148        C152   1.530       .  S
C148        C150   1.543       .  S
C148        H154   1.108       .  S
C149        H155   1.083       .  S
C149        C150   1.371       .  D
C150       C2485   1.491       .  S
C151        H156   1.087       .  S
C151        C152   1.357       .  D
C152       C2034   1.467       .  S
C157        C158   1.546       .  S
C157        C163   1.527   1_554  S
C157        C161   1.542   1_554  S
C157       C1974   1.527       .  S
C158        H165   1.082       .  S
C158        C159   1.370       .  D
C159        C160   1.535   1_554  S
C159       C2325   1.479       .  S
C160        C164   1.532       .  S
C160        C162   1.537       .  S
C160        H166   1.111       .  S
C161        H167   1.086       .  S
C161        C162   1.369       .  D
C162       C2565   1.484       .  S
C163        H168   1.087       .  S
C163        C164   1.357       .  D
C164       C1985   1.467       .  S
C169        C170   1.544       .  S
C169        C175   1.530       .  S
C169        C173   1.542   1_556  S
C169       C1934   1.528       .  S
C170        H177   1.080       .  S
C170        C171   1.367       .  D
C171        C172   1.537       .  S
C171       C2634   1.480       .  S
C172        C176   1.542       .  S
C172        C174   1.544   1_556  S
C172        H178   1.110       .  S
C173        H179   1.086       .  S
C173        C174   1.368       .  D
C174       C2265   1.493       .  S
C175        H180   1.087       .  S
C175        C176   1.360       .  D
C176       C1954   1.479       .  S
C181        C182   1.548       .  S
C181        C187   1.533       .  S
C181        C185   1.541       .  S
C181       C1894   1.538       .  S
C182        H189   1.081       .  S
C182        C183   1.362       .  D
C183        C184   1.532       .  S
C183       C2214   1.474       .  S
C184        C188   1.535       .  S
C184        C186   1.539       .  S
C184        H190   1.110       .  S
C185        H191   1.085       .  S
C185        C186   1.373       .  D
C186       C2454   1.490       .  S
C187        H192   1.087       .  S
C187        C188   1.365       .  D
C188       C1905   1.477       .  S
C193        C194   1.548       .  S
C193        C199   1.527       .  S
C193        C197   1.541       .  S
C193       C1854   1.534       .  S
C194        H201   1.079       .  S
C194        C195   1.369       .  D
C195        C196   1.536       .  S
C195       C2514   1.479       .  S
C196        C200   1.538       .  S
C196        C198   1.544       .  S
C196        H202   1.110       .  S
C197        H203   1.085       .  S
C197        C198   1.373       .  D
C198       C2174   1.492       .  S
C199        H204   1.088       .  S
C199        C200   1.355       .  D
C200       C1874   1.477       .  S
O205       Zr241   2.436       .  S
O205        C216   1.292       .  A
O206       Zr240   2.450       .  S
O206        C217   1.295   1_455  A
O207       Zr213   2.432       .  S
O207        C218   1.291       .  A
O208       Zr213   2.439       .  S
O208        C219   1.293       .  A
O209       Zr243   2.440       .  S
O209        C219   1.293       .  A
O210       Zr242   2.431       .  S
O210        C218   1.290       .  A
O211       Zr213   2.419       .  S
O211        C217   1.290       .  A
O212       Zr213   2.435       .  S
O212        C216   1.292       .  A
Zr213       O214   2.337       .  S
Zr213       O215   2.334       .  S
Zr213       O223   2.336       .  S
Zr213       O221   2.343       .  S
O214       Zr240   2.337   1_655  S
O214       Zr243   2.337       .  S
O215       Zr241   2.336       .  S
O215       Zr242   2.344       .  S
C216       C2014   1.470       .  S
C217       C1665   1.481       .  S
C218       C1725   1.465       .  S
C219       C1805   1.486       .  S
H220        O221   0.964       .  S
O221       Zr240   2.339   1_655  S
O221       Zr242   2.326       .  S
H222        O223   0.965       .  S
O223       Zr241   2.347       .  S
O223       Zr243   2.336       .  S
O224       Zr240   2.450       .  S
O224        C247   1.295       .  A
O225       Zr241   2.443       .  S
O225        C248   1.294       .  A
O226       Zr242   2.437   1_455  S
O226        C249   1.293       .  A
O227       Zr243   2.428   1_455  S
O227        C250   1.291       .  A
O228       Zr243   2.418       .  S
O228        C251   1.289       .  A
O229       Zr242   2.425       .  S
O229        C252   1.290       .  A
O230       Zr244   2.413       .  S
O230        C253   1.287       .  A
O231       Zr244   2.440       .  S
O231        C254   1.292       .  A
O232       Zr242   2.441   1_455  S
O232        C253   1.293       .  A
O233       Zr243   2.456   1_455  S
O233        C254   1.295       .  A
O234       Zr240   2.423       .  S
O234        C249   1.289       .  A
O235       Zr241   2.451       .  S
O235        C252   1.295       .  A
O236       Zr241   2.451       .  S
O236        C251   1.296       .  A
O237       Zr240   2.421       .  S
O237        C250   1.289       .  A
O238       Zr244   2.420       .  S
O238        C247   1.289       .  A
O239       Zr244   2.430       .  S
O239        C248   1.291   1_455  A
Zr240       O246   2.333       .  S
Zr240       O258   2.343       .  S
Zr241       O245   2.341       .  S
Zr241       O256   2.344       .  S
Zr242       O246   2.333   1_655  S
Zr242       O256   2.335       .  S
Zr243       O245   2.340       .  S
Zr243       O258   2.322   1_655  S
Zr244       O245   2.326   1_455  S
Zr244       O246   2.339       .  S
Zr244       O258   2.336       .  S
Zr244       O256   2.342   1_455  S
C247       C1845   1.480       .  S
C248       C1645   1.483       .  S
C249       C1705   1.481       .  S
C250       C1825   1.468       .  S
C251       C1785   1.484       .  S
C252       C1754   1.481       .  S
C253       C1685   1.468       .  S
C254       C1765   1.488       .  S
H255        O256   0.964       .  S
H257        O258   0.965       .  S
O259       Zr295   2.438       .  S
O259        C270   1.292       .  A
O260       Zr294   2.436       .  S
O260        C271   1.292   1_455  A
O261       Zr267   2.443       .  S
O261        C272   1.294       .  A
O262       Zr267   2.458       .  S
O262        C273   1.296       .  A
O263       Zr297   2.447       .  S
O263        C273   1.294       .  A
O264       Zr296   2.449       .  S
O264        C272   1.295       .  A
O265       Zr267   2.429       .  S
O265        C271   1.291       .  A
O266       Zr267   2.418       .  S
O266        C270   1.288       .  A
Zr267       O268   2.342       .  S
Zr267       O269   2.341       .  S
Zr267       O277   2.335       .  S
Zr267       O275   2.337       .  S
O268       Zr294   2.346   1_655  S
O268       Zr297   2.342       .  S
O269       Zr295   2.332       .  S
O269       Zr296   2.335       .  S
C270       C2345   1.467       .  S
C271       C1465   1.474       .  S
C272       C1594   1.489       .  S
C273       C1514   1.486       .  S
H274        O275   0.965       .  S
O275       Zr294   2.334   1_655  S
O275       Zr296   2.344       .  S
H276        O277   0.964       .  S
O277       Zr295   2.336       .  S
O277       Zr297   2.347       .  S
O278       Zr294   2.438       .  S
O278        C301   1.293       .  A
O279       Zr295   2.419       .  S
O279        C302   1.290       .  A
O280       Zr296   2.432   1_455  S
O280        C303   1.292       .  A
O281       Zr297   2.450   1_455  S
O281        C304   1.295       .  A
O282       Zr297   2.447       .  S
O282        C305   1.294       .  A
O283       Zr296   2.432       .  S
O283        C306   1.291       .  A
O284       Zr298   2.445       .  S
O284        C307   1.294       .  A
O285       Zr298   2.450       .  S
O285        C308   1.295       .  A
O286       Zr296   2.452   1_455  S
O286        C307   1.295       .  A
O287       Zr297   2.436   1_455  S
O287        C308   1.292       .  A
O288       Zr294   2.436       .  S
O288        C303   1.292       .  A
O289       Zr295   2.438       .  S
O289        C306   1.292       .  A
O290       Zr295   2.438       .  S
O290        C305   1.293       .  A
O291       Zr294   2.432       .  S
O291        C304   1.292       .  A
O292       Zr298   2.436       .  S
O292        C301   1.292       .  A
O293       Zr298   2.446       .  S
O293        C302   1.294   1_455  A
Zr294       O300   2.335       .  S
Zr294       O312   2.342       .  S
Zr295       O299   2.342       .  S
Zr295       O310   2.338       .  S
Zr296       O300   2.333   1_655  S
Zr296       O310   2.344       .  S
Zr297       O299   2.340       .  S
Zr297       O312   2.351   1_655  S
Zr298       O299   2.342   1_455  S
Zr298       O300   2.341       .  S
Zr298       O312   2.339       .  S
Zr298       O310   2.337   1_455  S
C301       C1885   1.487       .  S
C302       C1454   1.479       .  S
C303       C1574   1.483       .  S
C304       C1525   1.478       .  S
C305       C1494   1.488       .  S
C306       C1605   1.469       .  S
C307       C1634   1.484       .  S
C308       C1545   1.479       .  S
H309        O310   0.964       .  S
H311        O312   0.964       .  S
C313        C314   1.542       .  S
C313        C319   1.535       .  S
C313        C317   1.535       .  S
C313       C1405   1.527       .  S
C314        H321   1.082       .  S
C314        C315   1.366       .  D
C315        C316   1.542       .  S
C315       C1505   1.488       .  S
C316        C320   1.535       .  S
C316        C318   1.536       .  S
C316        H322   1.110       .  S
C317        H323   1.086       .  S
C317        C318   1.366       .  D
C318       C1734   1.477       .  S
C319        H324   1.086       .  S
C319        C320   1.364       .  D
C320       C1425   1.475       .  S
C325        C326   1.543       .  S
C325        C331   1.531       .  S
C325        C329   1.532       .  S
C325       C1365   1.526       .  S
C326        H333   1.082       .  S
C326        C327   1.369       .  D
C327        C328   1.538       .  S
C327       C1714   1.477       .  S
C328        C332   1.539       .  S
C328        C330   1.547       .  S
C328        H334   1.110       .  S
C329        H335   1.086       .  S
C329        C330   1.368       .  D
C330       C1534   1.489       .  S
C331        H336   1.087       .  S
C331        C332   1.360       .  D
C332       C1385   1.480       .  S
C337        C338   1.548   1_545  S
C337        C343   1.540       .  S
C337        C341   1.536       .  S
C337       C2145   1.534       .  S
C338        H345   1.086       .  S
C338        C339   1.368       .  D
C339        C340   1.531   1_565  S
C339       C1794   1.475       .  S
C340        C344   1.528       .  S
C340        C342   1.537       .  S
C340        H346   1.111       .  S
C341        H347   1.086       .  S
C341        C342   1.370       .  D
C342       C1614   1.484       .  S
C343        H348   1.083   1_545  S
C343        C344   1.360       .  D
C344       C1345   1.470   1_545  S
C349        C350   1.536       .  S
C349        C355   1.531   1_545  S
C349        C353   1.549   1_545  S
C349       C2434   1.533       .  S
C350        H357   1.087       .  S
C350        C351   1.364       .  D
C351        C352   1.542       .  S
C351       C1585   1.480       .  S
C352        C356   1.544   1_545  S
C352        C354   1.533   1_545  S
C352        H358   1.109       .  S
C353        H359   1.076       .  S
C353        C354   1.366       .  D
C354       C1814   1.482       .  S
C355        H360   1.086       .  S
C355        C356   1.364       .  D
C356       C1325   1.487       .  S
C361        C362   1.537       .  S
C361        C367   1.533       .  S
C361        C365   1.539       .  S
C361       C1285   1.530       .  S
C362        H369   1.086       .  S
C362        C363   1.364       .  D
C363        C364   1.543       .  S
C363       C1745   1.476       .  S
C364        C368   1.541       .  S
C364        C366   1.542       .  S
C364        H370   1.110       .  S
C365        H371   1.080       .  S
C365        C366   1.367       .  D
C366       C1485   1.490       .  S
C367        H372   1.087       .  S
C367        C368   1.364       .  D
C368       C1314   1.484       .  S
C373        C374   1.540       .  S
C373        C379   1.533       .  S
C373        C377   1.544       .  S
C373       C1245   1.524       .  S
C374        H381   1.086       .  S
C374        C375   1.364       .  D
C375        C376   1.536       .  S
C375       C1554   1.479       .  S
C376        C380   1.533       .  S
C376        C378   1.535       .  S
C376        H382   1.107       .  S
C377        H383   1.083       .  S
C377        C378   1.369       .  D
C378       C1694   1.482       .  S
C379        H384   1.086       .  S
C379        C380   1.363       .  D
C380       C1274   1.483       .  S
C385        C386   1.550       .  S
C385        C391   1.534       .  S
C385        C389   1.539   1_545  S
C385       C2134   1.542       .  S
C386        H393   1.081       .  S
C386        C387   1.368       .  D
C387        C388   1.537       .  S
C387       C1625   1.484       .  S
C388        C392   1.546       .  S
C388        C390   1.548   1_545  S
C388        H394   1.111       .  S
C389        H395   1.086       .  S
C389        C390   1.370       .  D
C390       C1774   1.495       .  S
C391        H396   1.087       .  S
C391        C392   1.364       .  D
C392       C1225   1.489       .  S
C397        C398   1.542   1_545  S
C397        C403   1.539       .  S
C397        C401   1.543       .  S
C397       C2414   1.531       .  S
C398        H405   1.081       .  S
C398        C399   1.363       .  D
C399        C400   1.537   1_565  S
C399       C1834   1.475       .  S
C400        C404   1.530       .  S
C400        C402   1.533       .  S
C400        H406   1.111       .  S
C401        H407   1.086       .  S
C401        C402   1.369       .  D
C402       C1565   1.479       .  S
C403        H408   1.086       .  S
C403        C404   1.362       .  D
C404       C1205   1.473       .  S
O409       Zr445   2.423       .  S
O409        C420   1.290       .  A
O410       Zr444   2.432       .  S
O410        C421   1.292       .  A
O411       Zr417   2.441       .  S
O411        C422   1.293       .  A
O412       Zr417   2.430       .  S
O412        C423   1.292       .  A
O413       Zr447   2.431   1_554  S
O413        C423   1.291       .  A
O414       Zr446   2.439   1_554  S
O414        C422   1.293       .  A
O415       Zr417   2.431       .  S
O415        C421   1.291       .  A
O416       Zr417   2.445       .  S
O416        C420   1.294   1_554  A
Zr417       O418   2.335       .  S
Zr417       O419   2.327   1_554  S
Zr417       O427   2.337   1_554  S
Zr417       O425   2.338       .  S
O418       Zr444   2.334       .  S
O418       Zr447   2.332   1_554  S
O419       Zr445   2.331       .  S
O419       Zr446   2.330       .  S
C420       C2045   1.478       .  S
C421       C1294   1.477       .  S
C422       C1074   1.486       .  S
C423       C1185   1.476       .  S
H424        O425   0.965       .  S
O425       Zr444   2.342       .  S
O425       Zr446   2.350   1_554  S
H426        O427   0.964       .  S
O427       Zr445   2.336       .  S
O427       Zr447   2.348       .  S
O428       Zr444   2.434       .  S
O428        C451   1.292   1_554  A
O429       Zr445   2.431       .  S
O429        C452   1.292       .  A
O430       Zr446   2.433   1_554  S
O430        C453   1.292       .  A
O431       Zr447   2.438   1_554  S
O431        C454   1.292       .  A
O432       Zr447   2.446       .  S
O432        C455   1.294       .  A
O433       Zr446   2.431       .  S
O433        C456   1.291       .  A
O434       Zr448   2.443       .  S
O434        C457   1.293       .  A
O435       Zr448   2.454       .  S
O435        C458   1.296       .  A
O436       Zr446   2.454       .  S
O436        C457   1.296       .  A
O437       Zr447   2.436       .  S
O437        C458   1.292       .  A
O438       Zr444   2.444       .  S
O438        C453   1.294       .  A
O439       Zr445   2.432       .  S
O439        C456   1.291       .  A
O440       Zr445   2.439       .  S
O440        C455   1.293       .  A
O441       Zr444   2.448       .  S
O441        C454   1.295       .  A
O442       Zr448   2.423       .  S
O442        C451   1.289       .  A
O443       Zr448   2.415       .  S
O443        C452   1.288       .  A
Zr444       O450   2.338   1_554  S
Zr444       O462   2.336   1_554  S
Zr445       O449   2.339       .  S
Zr445       O460   2.340       .  S
Zr446       O450   2.333       .  S
Zr446       O460   2.346       .  S
Zr447       O449   2.337       .  S
Zr447       O462   2.347       .  S
Zr448       O449   2.341       .  S
Zr448       O450   2.338       .  S
Zr448       O462   2.334       .  S
Zr448       O460   2.341       .  S
C451       C1925   1.482       .  S
C452       C1414   1.478       .  S
C453       C1045   1.483       .  S
C454       C1125   1.483       .  S
C455       C1165   1.485       .  S
C456       C1085   1.476       .  S
C457       C1114   1.495       .  S
C458       C1154   1.487       .  S
H459        O460   0.965       .  S
H461        O462   0.964       .  S
O463       Zr499   2.439       .  S
O463        C474   1.293       .  A
O464       Zr498   2.431       .  S
O464        C475   1.291       .  A
O465       Zr471   2.436       .  S
O465        C476   1.292       .  A
O466       Zr471   2.441       .  S
O466        C477   1.293       .  A
O467       Zr501   2.466   1_554  S
O467        C477   1.297       .  A
O468       Zr500   2.457   1_554  S
O468        C476   1.296       .  A
O469       Zr471   2.437       .  S
O469        C475   1.293       .  A
O470       Zr471   2.421       .  S
O470        C474   1.290   1_554  A
Zr471       O472   2.332       .  S
Zr471       O473   2.338   1_554  S
Zr471       O481   2.345   1_554  S
Zr471       O479   2.339       .  S
O472       Zr498   2.340       .  S
O472       Zr501   2.337   1_554  S
O473       Zr499   2.343       .  S
O473       Zr500   2.337       .  S
C474       C2094   1.472       .  S
C475       C1254   1.466       .  S
C476        C934   1.486       .  S
C477       C1005   1.496       .  S
H478        O479   0.973       .  S
O479       Zr498   2.347       .  S
O479       Zr500   2.326   1_554  S
H480        O481   0.972       .  S
O481       Zr499   2.349       .  S
O481       Zr501   2.329       .  S
O482       Zr498   2.442       .  S
O482        C505   1.293   1_554  A
O483       Zr499   2.450       .  S
O483        C506   1.295       .  A
O484       Zr500   2.444   1_554  S
O484        C507   1.294       .  A
O485       Zr501   2.424   1_554  S
O485        C508   1.290       .  A
O486       Zr501   2.421       .  S
O486        C509   1.289       .  A
O487       Zr500   2.446       .  S
O487        C510   1.294       .  A
O488       Zr502   2.439       .  S
O488        C511   1.293       .  A
O489       Zr502   2.438       .  S
O489        C512   1.293       .  A
O490       Zr500   2.427       .  S
O490        C511   1.291       .  A
O491       Zr501   2.444       .  S
O491        C512   1.293       .  A
O492       Zr498   2.446       .  S
O492        C507   1.295       .  A
O493       Zr499   2.441       .  S
O493        C510   1.293       .  A
O494       Zr499   2.443       .  S
O494        C509   1.294       .  A
O495       Zr498   2.439       .  S
O495        C508   1.293       .  A
O496       Zr502   2.435       .  S
O496        C505   1.292       .  A
O497       Zr502   2.426       .  S
O497        C506   1.291       .  A
Zr498       O504   2.335   1_554  S
Zr498       O516   2.342   1_554  S
Zr499       O503   2.333       .  S
Zr499       O514   2.337       .  S
Zr500       O504   2.352       .  S
Zr500       O514   2.337       .  S
Zr501       O503   2.347       .  S
Zr501       O516   2.340       .  S
Zr502       O503   2.338       .  S
Zr502       O504   2.339       .  S
Zr502       O516   2.343       .  S
Zr502       O514   2.342       .  S
C505       C1965   1.484       .  S
C506       C1374   1.485       .  S
C507        C914   1.494       .  S
C508       C1025   1.471       .  S
C509        C985   1.479       .  S
C510        C954   1.493       .  S
C511        C885   1.475       .  S
C512        C965   1.481       .  S
H513        O514   0.970       .  S
H515        O516   0.973       .  S
C517        C518   1.543   1_655  S
C517        C523   1.531   1_655  S
C517        C521   1.535       .  S
C517       C1674   1.527       .  S
C518        H525   1.081       .  S
C518        C519   1.365       .  D
C519        C520   1.541   1_455  S
C519        C945   1.479       .  S
C520        C524   1.543   1_655  S
C520        C522   1.552       .  S
C520        H526   1.110   1_655  S
C521        H527   1.085       .  S
C521        C522   1.370       .  D
C522       C1174   1.500       .  S
C523        H528   1.087       .  S
C523        C524   1.359       .  D
C524        C865   1.481       .  S
C529        C530   1.542       .  S
C529        C535   1.529       .  S
C529        C533   1.538   1_655  S
C529       C1474   1.527       .  S
C530        H537   1.078       .  S
C530        C531   1.368       .  D
C531        C532   1.543       .  S
C531       C1145   1.496       .  S
C532        C536   1.540       .  S
C532        C534   1.539   1_655  S
C532        H538   1.108       .  S
C533        H539   1.086       .  S
C533        C534   1.367       .  D
C534        C894   1.485       .  S
C535        H540   1.087       .  S
C535        C536   1.361       .  D
C536        C854   1.477   1_655  S
C541        C542   1.543       .  S
C541        C547   1.534       .  S
C541        C545   1.543       .  S
C541       C2545   1.527       .  S
C542        H549   1.081       .  S
C542        C543   1.368       .  D
C543        C544   1.539       .  S
C543        C994   1.487       .  S
C544        C548   1.535       .  S
C544        C546   1.541       .  S
C544        H550   1.108       .  S
C545        H551   1.086       .  S
C545        C546   1.367       .  D
C546       C1094   1.483       .  S
C547        H552   1.087       .  S
C547        C548   1.358       .  D
C548        C825   1.477       .  S
C553        C554   1.544       .  S
C553        C559   1.527       .  S
C553        C557   1.538       .  S
C553       C2254   1.528       .  S
C554        H561   1.083       .  S
C554        C555   1.369       .  D
C555        C556   1.537       .  S
C555       C1065   1.476       .  S
C556        C560   1.540       .  S
C556        C558   1.553       .  S
C556        H562   1.107       .  S
C557        H563   1.085       .  S
C557        C558   1.373       .  D
C558       C1014   1.506       .  S
C559        H564   1.087       .  S
C559        C560   1.357       .  D
C560        C805   1.481       .  S
C565        C566   1.541   1_655  S
C565        C571   1.526       .  S
C565        C569   1.539       .  S
C565       C1445   1.531       .  S
C566        H573   1.078       .  S
C566        C567   1.372       .  D
C567        C568   1.553   1_455  S
C567        C905   1.505       .  S
C568        C572   1.547       .  S
C568        C570   1.547       .  S
C568        H574   1.106       .  S
C569        H575   1.086       .  S
C569        C570   1.371       .  D
C570       C1134   1.496       .  S
C571        H576   1.087       .  S
C571        C572   1.356       .  D
C572        C794   1.482       .  S
C577        C578   1.539       .  S
C577        C583   1.542       .  S
C577        C581   1.545   1_655  S
C577       C1654   1.539       .  S
C578        H585   1.086       .  S
C578        C579   1.364       .  D
C579        C580   1.532       .  S
C579       C1194   1.473       .  S
C580        C584   1.529       .  S
C580        C582   1.546   1_655  S
C580        H586   1.108       .  S
C581        H587   1.085       .  S
C581        C582   1.377       .  D
C582        C925   1.502       .  S
C583        H588   1.079       .  S
C583        C584   1.358       .  D
C584        C774   1.477       .  S
C589        C590   1.543       .  S
C589        C595   1.533       .  S
C589        C593   1.543       .  S
C589       C2534   1.533       .  S
C590        H597   1.082       .  S
C590        C591   1.362       .  D
C591        C592   1.539       .  S
C591       C1105   1.477       .  S
C592        C596   1.539       .  S
C592        C594   1.538       .  S
C592        H598   1.111       .  S
C593        H599   1.086       .  S
C593        C594   1.373       .  D
C594        C974   1.483       .  S
C595        H600   1.087       .  S
C595        C596   1.361       .  D
C596        C745   1.480       .  S
C601        C602   1.547       .  S
C601        C607   1.537       .  S
C601        C605   1.541       .  S
C601       C2225   1.533       .  S
C602        H609   1.080       .  S
C602        C603   1.363       .  D
C603        C604   1.531       .  S
C603       C1034   1.473       .  S
C604        C608   1.535       .  S
C604        C606   1.535       .  S
C604        H610   1.111       .  S
C605        H611   1.086       .  S
C605        C606   1.369       .  D
C606       C1054   1.483       .  S
C607        H612   1.087       .  S
C607        C608   1.364       .  D
C608        C725   1.480       .  S
O613       Zr649   2.453       .  S
O613        C624   1.294       .  A
O614       Zr648   2.457       .  S
O614        C625   1.295       .  A
O615       Zr621   2.449       .  S
O615        C626   1.294       .  A
O616       Zr621   2.480       .  S
O616        C627   1.300       .  A
O617       Zr651   2.406       .  S
O617        C627   1.286       .  A
O618       Zr650   2.418       .  S
O618        C626   1.289       .  A
O619       Zr621   2.427       .  S
O619        C625   1.291       .  A
O620       Zr621   2.430       .  S
O620        C624   1.291       .  A
Zr621       O622   2.339       .  S
Zr621       O623   2.342       .  S
Zr621       O631   2.341       .  S
Zr621       O629   2.351       .  S
O622       Zr648   2.339       .  S
O622       Zr651   2.332       .  S
O623       Zr649   2.337       .  S
O623       Zr650   2.330       .  S
C624       C2394   1.472       .  S
C625        C734   1.474       .  S
C626       C1914   1.476       .  S
C627       C1305   1.480       .  S
H628        O629   0.966       .  S
O629       Zr648   2.346       .  S
O629       Zr650   2.342       .  S
H630        O631   0.965       .  S
O631       Zr649   2.349       .  S
O631       Zr651   2.350       .  S
O632       Zr648   2.460       .  S
O632        C655   1.295       .  A
O633       Zr649   2.456       .  S
O633        C656   1.295       .  A
O634       Zr650   2.439       .  S
O634        C657   1.292       .  A
O635       Zr651   2.472       .  S
O635        C658   1.297       .  A
O636       Zr651   2.440       .  S
O636        C659   1.292       .  A
O637       Zr650   2.461       .  S
O637        C660   1.295       .  A
O638       Zr652   2.483       .  S
O638        C661   1.299       .  A
O639       Zr652   2.441       .  S
O639        C662   1.292       .  A
O640       Zr650   2.407       .  S
O640        C661   1.287       .  A
O641       Zr651   2.422       .  S
O641        C662   1.290       .  A
O642       Zr648   2.422       .  S
O642        C657   1.290       .  A
O643       Zr649   2.430       .  S
O643        C660   1.290       .  A
O644       Zr649   2.427       .  S
O644        C659   1.292       .  A
O645       Zr648   2.418       .  S
O645        C658   1.289       .  A
O646       Zr652   2.407       .  S
O646        C655   1.286       .  A
O647       Zr652   2.427       .  S
O647        C656   1.291       .  A
Zr648       O654   2.339       .  S
Zr648       O666   2.337       .  S
Zr649       O653   2.340       .  S
Zr649       O664   2.338       .  S
Zr650       O654   2.337       .  S
Zr650       O664   2.331       .  S
Zr651       O653   2.350       .  S
Zr651       O666   2.332       .  S
Zr652       O653   2.345       .  S
Zr652       O654   2.334       .  S
Zr652       O666   2.354       .  S
Zr652       O664   2.328       .  S
C655       C1865   1.459       .  S
C656        C834   1.491       .  S
C657       C1265   1.470       .  S
C658        C814   1.483       .  S
C659       C1434   1.472       .  S
C660        C754   1.471       .  S
C661       C1394   1.486       .  S
C662       C2025   1.466       .  S
H663        O664   0.965       .  S
H665        O666   0.966       .  S
O667       Zr703   2.465       .  S
O667        C678   1.296       .  A
O668       Zr702   2.455   1_455  S
O668        C679   1.295       .  A
O669       Zr675   2.489       .  S
O669        C680   1.301       .  A
O670       Zr675   2.451   1_545  S
O670        C681   1.295       .  A
O671       Zr705   2.405   1_556  S
O671        C681   1.287       .  A
O672       Zr704   2.409       .  S
O672        C680   1.287   1_655  A
O673       Zr675   2.444   1_545  S
O673        C679   1.295       .  A
O674       Zr675   2.440       .  S
O674        C678   1.293   1_556  A
Zr675       O676   2.351   1_565  S
Zr675       O677   2.332       .  S
Zr675       O685   2.351   1_566  S
Zr675       O683   2.344   1_455  S
O676       Zr702   2.340   1_455  S
O676       Zr705   2.343   1_556  S
O677       Zr703   2.338   1_556  S
O677       Zr704   2.348   1_455  S
C678       C2114   1.482       .  S
C679       C1214   1.480       .  S
C680        C874   1.484       .  S
C681       C1994   1.466       .  S
H682        O683   0.965       .  S
O683       Zr702   2.347   1_565  S
O683       Zr704   2.332       .  S
H684        O685   0.966       .  S
O685       Zr703   2.335   1_545  S
O685       Zr705   2.341       .  S
O686       Zr702   2.480       .  S
O686        C709   1.300       .  A
O687       Zr703   2.443   1_655  S
O687        C710   1.293       .  A
O688       Zr704   2.471       .  S
O688        C711   1.297       .  A
O689       Zr705   2.444   1_556  S
O689        C712   1.292       .  A
O690       Zr705   2.455       .  S
O690        C713   1.294       .  A
O691       Zr704   2.442   1_554  S
O691        C714   1.292       .  A
O692       Zr706   2.444   1_565  S
O692        C715   1.293       .  A
O693       Zr706   2.483       .  S
O693        C716   1.299       .  A
O694       Zr704   2.424       .  S
O694        C715   1.291   1_556  A
O695       Zr705   2.417       .  S
O695        C716   1.287   1_455  A
O696       Zr702   2.395       .  S
O696        C711   1.284   1_545  A
O697       Zr703   2.421   1_655  S
O697        C714   1.290       .  A
O698       Zr703   2.422   1_545  S
O698        C713   1.289       .  A
O699       Zr702   2.418       .  S
O699        C712   1.289   1_655  A
O700       Zr706   2.395       .  S
O700        C709   1.286   1_554  A
O701       Zr706   2.423       .  S
O701        C710   1.291   1_545  A
Zr702       O708   2.336       .  S
Zr702       O720   2.336       .  S
Zr703       O707   2.342   1_465  S
Zr703       O718   2.344   1_455  S
Zr704       O708   2.333   1_565  S
Zr704       O718   2.346   1_556  S
Zr705       O707   2.332   1_455  S
Zr705       O720   2.333   1_454  S
Zr706       O707   2.327       .  S
Zr706       O708   2.349   1_554  S
Zr706       O720   2.337   1_554  S
Zr706       O718   2.344   1_545  S
C709       C1945   1.480       .  S
C710       C1354   1.475       .  S
C711       C1334   1.479       .  S
C712        C845   1.470       .  S
C713       C1234   1.470       .  S
C714        C765   1.472       .  S
C715       C2074   1.479       .  S
C716        C785   1.482       .  S
H717        O718   0.969       .  S
H719        O720   0.966       .  S
C721        C722   1.402       .  A
C721        C726   1.401       .  A
C721        H731   1.083       .  S
C722        C727   1.477       .  S
C722        C723   1.405       .  A
C723        C724   1.396       .  A
C723        F728   1.358       .  S
C724        C725   1.403       .  A
C724        H729   1.083       .  S
C725        C726   1.407       .  A
C726        F730   1.357       .  S
C727        C732   1.406       .  A
C727        C736   1.401       .  A
C732        C733   1.403       .  A
C732        F737   1.357       .  S
C733        C734   1.405       .  A
C733        H738   1.083       .  S
C734        C735   1.406       .  A
C735        C736   1.394       .  A
C735        F739   1.358       .  S
C736        H740   1.084       .  S
C741        C742   1.404       .  A
C741        C746   1.397       .  A
C741        H751   1.083       .  S
C742        C747   1.485       .  S
C742        C743   1.408       .  A
C743        C744   1.405       .  A
C743        F748   1.357       .  S
C744        C745   1.405       .  A
C744        H749   1.084       .  S
C745        C746   1.402       .  A
C746        F750   1.357       .  S
C747        C752   1.406       .  A
C747        C756   1.408       .  A
C752        C753   1.401       .  A
C752        F757   1.357       .  S
C753        C754   1.404       .  A
C753        H758   1.084       .  S
C754        C755   1.402       .  A
C755        C756   1.401       .  A
C755        F759   1.357       .  S
C756        H760   1.083       .  S
C761        C762   1.400   1_455  A
C761        C766   1.388       .  A
C761        H771   1.083       .  S
C762        C767   1.477       .  S
C762        C763   1.409       .  A
C763        C764   1.403       .  A
C763        F768   1.357       .  S
C764        C765   1.405       .  A
C764        H769   1.083       .  S
C765        C766   1.405   1_655  A
C766        F770   1.357       .  S
C767        C772   1.409   1_655  A
C767        C776   1.401       .  A
C772        C773   1.399       .  A
C772        F777   1.358       .  S
C773        C774   1.400   1_455  A
C773        H778   1.083       .  S
C774        C775   1.408       .  A
C775        C776   1.395       .  A
C775        F779   1.358       .  S
C776        H780   1.083       .  S
C781        C782   1.404       .  A
C781        C786   1.401       .  A
C781        H791   1.083   1_655  S
C782        C787   1.489       .  S
C782        C783   1.408       .  A
C783        C784   1.407       .  A
C783        F788   1.357       .  S
C784        C785   1.406       .  A
C784        H789   1.083       .  S
C785        C786   1.408       .  A
C786        F790   1.358   1_655  S
C787        C792   1.405       .  A
C787        C796   1.408       .  A
C792        C793   1.401       .  A
C792        F797   1.357       .  S
C793        C794   1.406       .  A
C793        H798   1.084       .  S
C794        C795   1.403   1_655  A
C795        C796   1.405   1_455  A
C795        F799   1.357       .  S
C796        H800   1.083   1_655  S
C801        C802   1.403       .  A
C801        C806   1.402       .  A
C801        H811   1.083       .  S
C802        C807   1.483       .  S
C802        C803   1.408       .  A
C803        C804   1.399       .  A
C803        F808   1.357       .  S
C804        C805   1.399       .  A
C804        H809   1.083       .  S
C805        C806   1.410       .  A
C806        F810   1.358       .  S
C807        C812   1.408       .  A
C807        C816   1.401       .  A
C812        C813   1.409       .  A
C812        F817   1.357       .  S
C813        C814   1.408       .  A
C813        H818   1.083       .  S
C814        C815   1.408       .  A
C815        C816   1.394       .  A
C815        F819   1.358       .  S
C816        H820   1.084       .  S
C821        C822   1.405       .  A
C821        C826   1.402       .  A
C821        H831   1.083       .  S
C822        C827   1.485       .  S
C822        C823   1.409       .  A
C823        C824   1.399       .  A
C823        F828   1.357       .  S
C824        C825   1.400       .  A
C824        H829   1.083       .  S
C825        C826   1.406       .  A
C826        F830   1.357       .  S
C827        C832   1.403       .  A
C827        C836   1.406       .  A
C832        C833   1.393       .  A
C832        F837   1.358       .  S
C833        C834   1.408       .  A
C833        H838   1.083       .  S
C834        C835   1.412       .  A
C835        C836   1.407       .  A
C835        F839   1.357       .  S
C836        H840   1.083       .  S
C841        C842   1.403       .  A
C841        C846   1.391       .  A
C841        H851   1.083       .  S
C842        C847   1.481       .  S
C842        C843   1.408       .  A
C843        C844   1.402       .  A
C843        F848   1.357       .  S
C844        C845   1.404       .  A
C844        H849   1.084       .  S
C845        C846   1.404       .  A
C846        F850   1.358       .  S
C847        C852   1.407       .  A
C847        C856   1.406   1_455  A
C852        C853   1.396       .  A
C852        F857   1.358       .  S
C853        C854   1.403       .  A
C853        H858   1.084       .  S
C854        C855   1.402   1_455  A
C855        C856   1.400       .  A
C855        F859   1.356       .  S
C856        H860   1.083       .  S
C861        C862   1.409   1_655  A
C861        C866   1.403       .  A
C861        H871   1.083       .  S
C862        C867   1.489       .  S
C862        C863   1.405       .  A
C863        C864   1.402       .  A
C863        F868   1.357       .  S
C864        C865   1.405       .  A
C864        H869   1.083       .  S
C865        C866   1.402   1_455  A
C866        F870   1.358       .  S
C867        C872   1.405   1_455  A
C867        C876   1.408       .  A
C872        C873   1.398       .  A
C872        F877   1.358       .  S
C873        C874   1.407   1_655  A
C873        H878   1.084       .  S
C874        C875   1.407       .  A
C875        C876   1.407       .  A
C875        F879   1.357       .  S
C876        H880   1.083       .  S
C881        C882   1.405       .  A
C881        C886   1.397       .  A
C881        H891   1.083       .  S
C882        C887   1.480       .  S
C882        C883   1.405       .  A
C883        C884   1.395       .  A
C883        F888   1.357       .  S
C884        C885   1.405       .  A
C884        H889   1.083       .  S
C885        C886   1.407       .  A
C886        F890   1.358       .  S
C887        C892   1.405       .  A
C887        C896   1.404       .  A
C892        C893   1.396       .  A
C892        F897   1.358       .  S
C893        C894   1.406       .  A
C893        H898   1.082       .  S
C894        C895   1.408       .  A
C895        C896   1.396       .  A
C895        F899   1.357       .  S
C896        H900   1.083       .  S
C901        C902   1.403       .  A
C901        C906   1.405       .  A
C901        H911   1.083       .  S
C902        C907   1.479       .  S
C902        C903   1.398       .  A
C903        C904   1.396       .  A
C903        F908   1.358       .  S
C904        C905   1.414       .  A
C904        H909   1.081       .  S
C905        C906   1.412       .  A
C906        F910   1.355       .  S
C907        C912   1.402       .  A
C907        C916   1.401       .  A
C912        C913   1.400       .  A
C912        F917   1.357       .  S
C913        C914   1.410       .  A
C913        H918   1.083       .  S
C914        C915   1.414       .  A
C915        C916   1.401       .  A
C915        F919   1.357       .  S
C916        H920   1.083       .  S
C921        C922   1.404       .  A
C921        C926   1.400       .  A
C921        H931   1.083       .  S
C922        C927   1.495       .  S
C922        C923   1.409       .  A
C923        C924   1.404       .  A
C923        F928   1.357       .  S
C924        C925   1.408       .  A
C924        H929   1.082       .  S
C925        C926   1.413       .  A
C926        F930   1.356       .  S
C927        C932   1.411       .  A
C927        C936   1.406       .  A
C932        C933   1.403       .  A
C932        F937   1.357       .  S
C933        C934   1.404       .  A
C933        H938   1.083       .  S
C934        C935   1.409       .  A
C935        C936   1.401       .  A
C935        F939   1.358       .  S
C936        H940   1.083       .  S
C941        C942   1.403       .  A
C941        C946   1.398       .  A
C941        H951   1.083       .  S
C942        C947   1.482       .  S
C942        C943   1.408       .  A
C943        C944   1.402       .  A
C943        F948   1.357       .  S
C944        C945   1.402       .  A
C944        H949   1.084       .  S
C945        C946   1.406       .  A
C946        F950   1.358       .  S
C947        C952   1.404       .  A
C947        C956   1.402       .  A
C952        C953   1.400       .  A
C952        F957   1.357       .  S
C953        C954   1.410       .  A
C953        H958   1.083       .  S
C954        C955   1.414       .  A
C955        C956   1.400       .  A
C955        F959   1.357       .  S
C956        H960   1.083       .  S
C961        C962   1.406       .  A
C961        C966   1.398       .  A
C961        H971   1.083       .  S
C962        C967   1.488       .  S
C962        C963   1.409       .  A
C963        C964   1.398       .  A
C963        F968   1.358       .  S
C964        C965   1.406       .  A
C964        H969   1.083       .  S
C965        C966   1.407       .  A
C966        F970   1.357       .  S
C967        C972   1.409       .  A
C967        C976   1.406       .  A
C972        C973   1.399       .  A
C972        F977   1.358       .  S
C973        C974   1.405       .  A
C973        H978   1.083       .  S
C974        C975   1.405       .  A
C975        C976   1.397       .  A
C975        F979   1.357       .  S
C976        H980   1.083       .  S
C981        C982   1.403       .  A
C981        C986   1.396       .  A
C981        H991   1.084       .  S
C982        C987   1.478       .  S
C982        C983   1.405       .  A
C983        C984   1.395       .  A
C983        F988   1.357       .  S
C984        C985   1.405       .  A
C984        H989   1.083       .  S
C985        C986   1.411       .  A
C986        F990   1.358       .  S
C987        C992   1.405       .  A
C987        C996   1.403       .  A
C992        C993   1.396       .  A
C992        F997   1.358       .  S
C993        C994   1.408       .  A
C993        H998   1.083       .  S
C994        C995   1.407       .  A
C995        C996   1.396       .  A
C995        F999   1.356       .  S
C996       H1000   1.083       .  S
C1001      C1002   1.405       .  A
C1001      C1006   1.401       .  A
C1001      H1011   1.083       .  S
C1002      C1007   1.498       .  S
C1002      C1003   1.412       .  A
C1003      C1004   1.405       .  A
C1003      F1008   1.358       .  S
C1004      C1005   1.408       .  A
C1004      H1009   1.083       .  S
C1005      C1006   1.412       .  A
C1006      F1010   1.357       .  S
C1007      C1012   1.409       .  A
C1007      C1016   1.405       .  A
C1012      C1013   1.402       .  A
C1012      F1017   1.358       .  S
C1013      C1014   1.411       .  A
C1013      H1018   1.082       .  S
C1014      C1015   1.413       .  A
C1015      C1016   1.402       .  A
C1015      F1019   1.354       .  S
C1016      H1020   1.083       .  S
C1021      C1022   1.406       .  A
C1021      C1026   1.396       .  A
C1021      H1031   1.083       .  S
C1022      C1027   1.483       .  S
C1022      C1023   1.408       .  A
C1023      C1024   1.395       .  A
C1023      F1028   1.357       .  S
C1024      C1025   1.402       .  A
C1024      H1029   1.084       .  S
C1025      C1026   1.407       .  A
C1026      F1030   1.358       .  S
C1027      C1032   1.408       .  A
C1027      C1036   1.407       .  A
C1032      C1033   1.395       .  A
C1032      F1037   1.357       .  S
C1033      C1034   1.400       .  A
C1033      H1038   1.084       .  S
C1034      C1035   1.404       .  A
C1035      C1036   1.397       .  A
C1035      F1039   1.358       .  S
C1036      H1040   1.083       .  S
C1041      C1042   1.400       .  A
C1041      C1046   1.399       .  A
C1041      H1051   1.083       .  S
C1042      C1047   1.474       .  S
C1042      C1043   1.402       .  A
C1043      C1044   1.397       .  A
C1043      F1048   1.357       .  S
C1044      C1045   1.406       .  A
C1044      H1049   1.083       .  S
C1045      C1046   1.413       .  A
C1046      F1050   1.358       .  S
C1047      C1052   1.404       .  A
C1047      C1056   1.401       .  A
C1052      C1053   1.400       .  A
C1052      F1057   1.358       .  S
C1053      C1054   1.406       .  A
C1053      H1058   1.083       .  S
C1054      C1055   1.407       .  A
C1055      C1056   1.397       .  A
C1055      F1059   1.357       .  S
C1056      H1060   1.083       .  S
C1061      C1062   1.405       .  A
C1061      C1066   1.398       .  A
C1061      H1071   1.083       .  S
C1062      C1067   1.485       .  S
C1062      C1063   1.410       .  A
C1063      C1064   1.398       .  A
C1063      F1068   1.357       .  S
C1064      C1065   1.400       .  A
C1064      H1069   1.084       .  S
C1065      C1066   1.404       .  A
C1066      F1070   1.358       .  S
C1067      C1072   1.407       .  A
C1067      C1076   1.403       .  A
C1072      C1073   1.399       .  A
C1072      F1077   1.358       .  S
C1073      C1074   1.408       .  A
C1073      H1078   1.083       .  S
C1074      C1075   1.410       .  A
C1075      C1076   1.397       .  A
C1075      F1079   1.357       .  S
C1076      H1080   1.083       .  S
C1081      C1082   1.402       .  A
C1081      C1086   1.392       .  A
C1081      H1091   1.084       .  S
C1082      C1087   1.474       .  S
C1082      C1083   1.404       .  A
C1083      C1084   1.399       .  A
C1083      F1088   1.358       .  S
C1084      C1085   1.407       .  A
C1084      H1089   1.081       .  S
C1085      C1086   1.407       .  A
C1086      F1090   1.358       .  S
C1087      C1092   1.403       .  A
C1087      C1096   1.404       .  A
C1092      C1093   1.390       .  A
C1092      F1097   1.358       .  S
C1093      C1094   1.402       .  A
C1093      H1098   1.083       .  S
C1094      C1095   1.411       .  A
C1095      C1096   1.403       .  A
C1095      F1099   1.357       .  S
C1096      H1100   1.083       .  S
C1101      C1102   1.404       .  A
C1101      C1106   1.398       .  A
C1101      H1111   1.083       .  S
C1102      C1107   1.483       .  S
C1102      C1103   1.408       .  A
C1103      C1104   1.402       .  A
C1103      F1108   1.357       .  S
C1104      C1105   1.400       .  A
C1104      H1109   1.083       .  S
C1105      C1106   1.406       .  A
C1106      F1110   1.358       .  S
C1107      C1112   1.404       .  A
C1107      C1116   1.402       .  A
C1112      C1113   1.400       .  A
C1112      F1117   1.358       .  S
C1113      C1114   1.409       .  A
C1113      H1118   1.083       .  S
C1114      C1115   1.415       .  A
C1115      C1116   1.401       .  A
C1115      F1119   1.357       .  S
C1116      H1120   1.083       .  S
C1121      C1122   1.405       .  A
C1121      C1126   1.399       .  A
C1121      H1131   1.083       .  S
C1122      C1127   1.491       .  S
C1122      C1123   1.410       .  A
C1123      C1124   1.402       .  A
C1123      F1128   1.357       .  S
C1124      C1125   1.406       .  A
C1124      H1129   1.083       .  S
C1125      C1126   1.407       .  A
C1126      F1130   1.358       .  S
C1127      C1132   1.409       .  A
C1127      C1136   1.405       .  A
C1132      C1133   1.401       .  A
C1132      F1137   1.358       .  S
C1133      C1134   1.408       .  A
C1133      H1138   1.083       .  S
C1134      C1135   1.409       .  A
C1135      C1136   1.401       .  A
C1135      F1139   1.356       .  S
C1136      H1140   1.083       .  S
C1141      C1142   1.403       .  A
C1141      C1146   1.395       .  A
C1141      H1151   1.083       .  S
C1142      C1147   1.492       .  S
C1142      C1143   1.410       .  A
C1143      C1144   1.404       .  A
C1143      F1148   1.356       .  S
C1144      C1145   1.406       .  A
C1144      H1149   1.082       .  S
C1145      C1146   1.414       .  A
C1146      F1150   1.357       .  S
C1147      C1152   1.408       .  A
C1147      C1156   1.407       .  A
C1152      C1153   1.402       .  A
C1152      F1157   1.357       .  S
C1153      C1154   1.409       .  A
C1153      H1158   1.083       .  S
C1154      C1155   1.407       .  A
C1155      C1156   1.398       .  A
C1155      F1159   1.357       .  S
C1156      H1160   1.083       .  S
C1161      C1162   1.407       .  A
C1161      C1166   1.401       .  A
C1161      H1171   1.083       .  S
C1162      C1167   1.494       .  S
C1162      C1163   1.409       .  A
C1163      C1164   1.399       .  A
C1163      F1168   1.357       .  S
C1164      C1165   1.406       .  A
C1164      H1169   1.083       .  S
C1165      C1166   1.408       .  A
C1166      F1170   1.358       .  S
C1167      C1172   1.409       .  A
C1167      C1176   1.405       .  A
C1172      C1173   1.403       .  A
C1172      F1177   1.357       .  S
C1173      C1174   1.407       .  A
C1173      H1178   1.082       .  S
C1174      C1175   1.413       .  A
C1175      C1176   1.399       .  A
C1175      F1179   1.357       .  S
C1176      H1180   1.083       .  S
C1181      C1182   1.402       .  A
C1181      C1186   1.397       .  A
C1181      H1191   1.083       .  S
C1182      C1187   1.474       .  S
C1182      C1183   1.403       .  A
C1183      C1184   1.394       .  A
C1183      F1188   1.357       .  S
C1184      C1185   1.405       .  A
C1184      H1189   1.083       .  S
C1185      C1186   1.410       .  A
C1186      F1190   1.358       .  S
C1187      C1192   1.404       .  A
C1187      C1196   1.404       .  A
C1192      C1193   1.396       .  A
C1192      F1197   1.357       .  S
C1193      C1194   1.403       .  A
C1193      H1198   1.083       .  S
C1194      C1195   1.404       .  A
C1195      C1196   1.396       .  A
C1195      F1199   1.357       .  S
C1196      H1200   1.083       .  S
C1201      C1202   1.404       .  A
C1201      C1206   1.396       .  A
C1201      H1211   1.083       .  S
C1202      C1207   1.485       .  S
C1202      C1203   1.410       .  A
C1203      C1204   1.401   1_545  A
C1203      F1208   1.357   1_545  S
C1204      C1205   1.400   1_565  A
C1204      H1209   1.083       .  S
C1205      C1206   1.404       .  A
C1206      F1210   1.358       .  S
C1207      C1212   1.407       .  A
C1207      C1216   1.406       .  A
C1212      C1213   1.395       .  A
C1212      F1217   1.358       .  S
C1213      C1214   1.402       .  A
C1213      H1218   1.084       .  S
C1214      C1215   1.409       .  A
C1215      C1216   1.405       .  A
C1215      F1219   1.357   1_455  S
C1216      H1220   1.083       .  S
C1221      C1222   1.403       .  A
C1221      C1226   1.399   1_545  A
C1221      H1231   1.083   1_545  S
C1222      C1227   1.487       .  S
C1222      C1223   1.408       .  A
C1223      C1224   1.408       .  A
C1223      F1228   1.358       .  S
C1224      C1225   1.407       .  A
C1224      H1229   1.083       .  S
C1225      C1226   1.405   1_545  A
C1226      F1230   1.357       .  S
C1227      C1232   1.411       .  A
C1227      C1236   1.403       .  A
C1232      C1233   1.404       .  A
C1232      F1237   1.357       .  S
C1233      C1234   1.401       .  A
C1233      H1238   1.083       .  S
C1234      C1235   1.405       .  A
C1235      C1236   1.399       .  A
C1235      F1239   1.358       .  S
C1236      H1240   1.083       .  S
C1241      C1242   1.402       .  A
C1241      C1246   1.395       .  A
C1241      H1251   1.083       .  S
C1242      C1247   1.484       .  S
C1242      C1243   1.407       .  A
C1243      C1244   1.396       .  A
C1243      F1248   1.358       .  S
C1244      C1245   1.408       .  A
C1244      H1249   1.079       .  S
C1245      C1246   1.413       .  A
C1246      F1250   1.358       .  S
C1247      C1252   1.411       .  A
C1247      C1256   1.404       .  A
C1252      C1253   1.399       .  A
C1252      F1257   1.357       .  S
C1253      C1254   1.401       .  A
C1253      H1258   1.083       .  S
C1254      C1255   1.404       .  A
C1255      C1256   1.393       .  A
C1255      F1259   1.358       .  S
C1256      H1260   1.083       .  S
C1261      C1262   1.405       .  A
C1261      C1266   1.398       .  A
C1261      H1271   1.083       .  S
C1262      C1267   1.475       .  S
C1262      C1263   1.404       .  A
C1263      C1264   1.394       .  A
C1263      F1268   1.358       .  S
C1264      C1265   1.404       .  A
C1264      H1269   1.084       .  S
C1265      C1266   1.405       .  A
C1266      F1270   1.357       .  S
C1267      C1272   1.404       .  A
C1267      C1276   1.403       .  A
C1272      C1273   1.395       .  A
C1272      F1277   1.358       .  S
C1273      C1274   1.405       .  A
C1273      H1278   1.083       .  S
C1274      C1275   1.409       .  A
C1275      C1276   1.399       .  A
C1275      F1279   1.357       .  S
C1276      H1280   1.083       .  S
C1281      C1282   1.400       .  A
C1281      C1286   1.394       .  A
C1281      H1291   1.084       .  S
C1282      C1287   1.482       .  S
C1282      C1283   1.405       .  A
C1283      C1284   1.397       .  A
C1283      F1288   1.357       .  S
C1284      C1285   1.410       .  A
C1284      H1289   1.083       .  S
C1285      C1286   1.418       .  A
C1286      F1290   1.354       .  S
C1287      C1292   1.405       .  A
C1287      C1296   1.407       .  A
C1292      C1293   1.396       .  A
C1292      F1297   1.357       .  S
C1293      C1294   1.407       .  A
C1293      H1298   1.084       .  S
C1294      C1295   1.406       .  A
C1295      C1296   1.396       .  A
C1295      F1299   1.358       .  S
C1296      H1300   1.083       .  S
C1301      C1302   1.406       .  A
C1301      C1306   1.405       .  A
C1301      H1311   1.083       .  S
C1302      C1307   1.480       .  S
C1302      C1303   1.403       .  A
C1303      C1304   1.397       .  A
C1303      F1308   1.358       .  S
C1304      C1305   1.408       .  A
C1304      H1309   1.084       .  S
C1305      C1306   1.406       .  A
C1306      F1310   1.357       .  S
C1307      C1312   1.409       .  A
C1307      C1316   1.400       .  A
C1312      C1313   1.403       .  A
C1312      F1317   1.358       .  S
C1313      C1314   1.403       .  A
C1313      H1318   1.083       .  S
C1314      C1315   1.408       .  A
C1315      C1316   1.398       .  A
C1315      F1319   1.357       .  S
C1316      H1320   1.083       .  S
C1321      C1322   1.404   1_545  A
C1321      C1326   1.399       .  A
C1321      H1331   1.083       .  S
C1322      C1327   1.472       .  S
C1322      C1323   1.399       .  A
C1323      C1324   1.395       .  A
C1323      F1328   1.358       .  S
C1324      C1325   1.410       .  A
C1324      H1329   1.083       .  S
C1325      C1326   1.406   1_565  A
C1326      F1330   1.356       .  S
C1327      C1332   1.405       .  A
C1327      C1336   1.397   1_565  A
C1332      C1333   1.403       .  A
C1332      F1337   1.357       .  S
C1333      C1334   1.406       .  A
C1333      H1338   1.083       .  S
C1334      C1335   1.412   1_565  A
C1335      C1336   1.390       .  A
C1335      F1339   1.357       .  S
C1336      H1340   1.084       .  S
C1341      C1342   1.404   1_545  A
C1341      C1346   1.398       .  A
C1341      H1351   1.083       .  S
C1342      C1347   1.470       .  S
C1342      C1343   1.402       .  A
C1343      C1344   1.392       .  A
C1343      F1348   1.358       .  S
C1344      C1345   1.403       .  A
C1344      H1349   1.084       .  S
C1345      C1346   1.402   1_565  A
C1346      F1350   1.357       .  S
C1347      C1352   1.405       .  A
C1347      C1356   1.401       .  A
C1352      C1353   1.392       .  A
C1352      F1357   1.359       .  S
C1353      C1354   1.405       .  A
C1353      H1358   1.084       .  S
C1354      C1355   1.408       .  A
C1355      C1356   1.399       .  A
C1355      F1359   1.357       .  S
C1356      H1360   1.083       .  S
C1361      C1362   1.399       .  A
C1361      C1366   1.393       .  A
C1361      H1371   1.083       .  S
C1362      C1367   1.479       .  S
C1362      C1363   1.405       .  A
C1363      C1364   1.399       .  A
C1363      F1368   1.358       .  S
C1364      C1365   1.411       .  A
C1364      H1369   1.077       .  S
C1365      C1366   1.413       .  A
C1366      F1370   1.358       .  S
C1367      C1372   1.404       .  A
C1367      C1376   1.403       .  A
C1372      C1373   1.397       .  A
C1372      F1377   1.358       .  S
C1373      C1374   1.410       .  A
C1373      H1378   1.083       .  S
C1374      C1375   1.409       .  A
C1375      C1376   1.397       .  A
C1375      F1379   1.357       .  S
C1376      H1380   1.083       .  S
C1381      C1382   1.402       .  A
C1381      C1386   1.400       .  A
C1381      H1391   1.083       .  S
C1382      C1387   1.488       .  S
C1382      C1383   1.412       .  A
C1383      C1384   1.402       .  A
C1383      F1388   1.358       .  S
C1384      C1385   1.400       .  A
C1384      H1389   1.084       .  S
C1385      C1386   1.407       .  A
C1386      F1390   1.358       .  S
C1387      C1392   1.411       .  A
C1387      C1396   1.401       .  A
C1392      C1393   1.409       .  A
C1392      F1397   1.357       .  S
C1393      C1394   1.407       .  A
C1393      H1398   1.083       .  S
C1394      C1395   1.410       .  A
C1395      C1396   1.394       .  A
C1395      F1399   1.358       .  S
C1396      H1400   1.084       .  S
C1401      C1402   1.400       .  A
C1401      C1406   1.395       .  A
C1401      H1411   1.083       .  S
C1402      C1407   1.475       .  S
C1402      C1403   1.403       .  A
C1403      C1404   1.395       .  A
C1403      F1408   1.358       .  S
C1404      C1405   1.411       .  A
C1404      H1409   1.077       .  S
C1405      C1406   1.414       .  A
C1406      F1410   1.357       .  S
C1407      C1412   1.405       .  A
C1407      C1416   1.401       .  A
C1412      C1413   1.395       .  A
C1412      F1417   1.357       .  S
C1413      C1414   1.407       .  A
C1413      H1418   1.083       .  S
C1414      C1415   1.411       .  A
C1415      C1416   1.392       .  A
C1415      F1419   1.358       .  S
C1416      H1420   1.083       .  S
C1421      C1422   1.403       .  A
C1421      C1426   1.401       .  A
C1421      H1431   1.083       .  S
C1422      C1427   1.475       .  S
C1422      C1423   1.406       .  A
C1423      C1424   1.391       .  A
C1423      F1428   1.358       .  S
C1424      C1425   1.400       .  A
C1424      H1429   1.083       .  S
C1425      C1426   1.408       .  A
C1426      F1430   1.357       .  S
C1427      C1432   1.404       .  A
C1427      C1436   1.404       .  A
C1432      C1433   1.390       .  A
C1432      F1437   1.358       .  S
C1433      C1434   1.402       .  A
C1433      H1438   1.084       .  S
C1434      C1435   1.409       .  A
C1435      C1436   1.402       .  A
C1435      F1439   1.358       .  S
C1436      H1440   1.083       .  S
C1441      C1442   1.401       .  A
C1441      C1446   1.395       .  A
C1441      H1451   1.083       .  S
C1442      C1447   1.480       .  S
C1442      C1443   1.404   1_655  A
C1443      C1444   1.397       .  A
C1443      F1448   1.358       .  S
C1444      C1445   1.412   1_455  A
C1444      H1449   1.076       .  S
C1445      C1446   1.413       .  A
C1446      F1450   1.358       .  S
C1447      C1452   1.404       .  A
C1447      C1456   1.406   1_655  A
C1452      C1453   1.394       .  A
C1452      F1457   1.358       .  S
C1453      C1454   1.407       .  A
C1453      H1458   1.083       .  S
C1454      C1455   1.407   1_655  A
C1455      C1456   1.398       .  A
C1455      F1459   1.358       .  S
C1456      H1460   1.083       .  S
C1461      C1462   1.403       .  A
C1461      C1466   1.397       .  A
C1461      H1471   1.083       .  S
C1462      C1467   1.474       .  S
C1462      C1463   1.404   1_655  A
C1463      C1464   1.394       .  A
C1463      F1468   1.358       .  S
C1464      C1465   1.404   1_455  A
C1464      H1469   1.083       .  S
C1465      C1466   1.408       .  A
C1466      F1470   1.358       .  S
C1467      C1472   1.402       .  A
C1467      C1476   1.399   1_655  A
C1472      C1473   1.396       .  A
C1472      F1477   1.358       .  S
C1473      C1474   1.412       .  A
C1473      H1478   1.075       .  S
C1474      C1475   1.413   1_655  A
C1475      C1476   1.393       .  A
C1475      F1479   1.358       .  S
C1476      H1480   1.083       .  S
C1481      C1482   1.403       .  A
C1481      C1486   1.395       .  A
C1481      H1491   1.083       .  S
C1482      C1487   1.487       .  S
C1482      C1483   1.409       .  A
C1483      C1484   1.399       .  A
C1483      F1488   1.357       .  S
C1484      C1485   1.404       .  A
C1484      H1489   1.081       .  S
C1485      C1486   1.411       .  A
C1486      F1490   1.358       .  S
C1487      C1492   1.408       .  A
C1487      C1496   1.405       .  A
C1492      C1493   1.397       .  A
C1492      F1497   1.358       .  S
C1493      C1494   1.408       .  A
C1493      H1498   1.083       .  S
C1494      C1495   1.410       .  A
C1495      C1496   1.398       .  A
C1495      F1499   1.357       .  S
C1496      H1500   1.083       .  S
C1501      C1502   1.408       .  A
C1501      C1506   1.405       .  A
C1501      H1511   1.083       .  S
C1502      C1507   1.492       .  S
C1502      C1503   1.408       .  A
C1503      C1504   1.397       .  A
C1503      F1508   1.357       .  S
C1504      C1505   1.405       .  A
C1504      H1509   1.083       .  S
C1505      C1506   1.407       .  A
C1506      F1510   1.357       .  S
C1507      C1512   1.409       .  A
C1507      C1516   1.406       .  A
C1512      C1513   1.403       .  A
C1512      F1517   1.357       .  S
C1513      C1514   1.407       .  A
C1513      H1518   1.083       .  S
C1514      C1515   1.407       .  A
C1515      C1516   1.401       .  A
C1515      F1519   1.357       .  S
C1516      H1520   1.083       .  S
C1521      C1522   1.407       .  A
C1521      C1526   1.400       .  A
C1521      H1531   1.083       .  S
C1522      C1527   1.487       .  S
C1522      C1523   1.408       .  A
C1523      C1524   1.398       .  A
C1523      F1528   1.358       .  S
C1524      C1525   1.405       .  A
C1524      H1529   1.084       .  S
C1525      C1526   1.405       .  A
C1526      F1530   1.357       .  S
C1527      C1532   1.408       .  A
C1527      C1536   1.404       .  A
C1532      C1533   1.401       .  A
C1532      F1537   1.357       .  S
C1533      C1534   1.405       .  A
C1533      H1538   1.083       .  S
C1534      C1535   1.410       .  A
C1535      C1536   1.397       .  A
C1535      F1539   1.357       .  S
C1536      H1540   1.083       .  S
C1541      C1542   1.405       .  A
C1541      C1546   1.399       .  A
C1541      H1551   1.083       .  S
C1542      C1547   1.485       .  S
C1542      C1543   1.409       .  A
C1543      C1544   1.398       .  A
C1543      F1548   1.358       .  S
C1544      C1545   1.403       .  A
C1544      H1549   1.083       .  S
C1545      C1546   1.408       .  A
C1546      F1550   1.357       .  S
C1547      C1552   1.409       .  A
C1547      C1556   1.404       .  A
C1552      C1553   1.399       .  A
C1552      F1557   1.358       .  S
C1553      C1554   1.404       .  A
C1553      H1558   1.083       .  S
C1554      C1555   1.404       .  A
C1555      C1556   1.394       .  A
C1555      F1559   1.357       .  S
C1556      H1560   1.083       .  S
C1561      C1562   1.400       .  A
C1561      C1566   1.396       .  A
C1561      H1571   1.084       .  S
C1562      C1567   1.474       .  S
C1562      C1563   1.405       .  A
C1563      C1564   1.399       .  A
C1563      F1568   1.358       .  S
C1564      C1565   1.404       .  A
C1564      H1569   1.083       .  S
C1565      C1566   1.407       .  A
C1566      F1570   1.356       .  S
C1567      C1572   1.402       .  A
C1567      C1576   1.402       .  A
C1572      C1573   1.395       .  A
C1572      F1577   1.357       .  S
C1573      C1574   1.408       .  A
C1573      H1578   1.083       .  S
C1574      C1575   1.412       .  A
C1575      C1576   1.398       .  A
C1575      F1579   1.358       .  S
C1576      H1580   1.084       .  S
C1581      C1582   1.409       .  A
C1581      C1586   1.403       .  A
C1581      H1591   1.083       .  S
C1582      C1587   1.494       .  S
C1582      C1583   1.410       .  A
C1583      C1584   1.399       .  A
C1583      F1588   1.357       .  S
C1584      C1585   1.401       .  A
C1584      H1589   1.084       .  S
C1585      C1586   1.404       .  A
C1586      F1590   1.357       .  S
C1587      C1592   1.409       .  A
C1587      C1596   1.406       .  A
C1592      C1593   1.402       .  A
C1592      F1597   1.357       .  S
C1593      C1594   1.408       .  A
C1593      H1598   1.083       .  S
C1594      C1595   1.409       .  A
C1595      C1596   1.399       .  A
C1595      F1599   1.357       .  S
C1596      H1600   1.083       .  S
C1601      C1602   1.408       .  A
C1601      C1606   1.398       .  A
C1601      H1611   1.083       .  S
C1602      C1607   1.486       .  S
C1602      C1603   1.409       .  A
C1603      C1604   1.396       .  A
C1603      F1608   1.358       .  S
C1604      C1605   1.402       .  A
C1604      H1609   1.084       .  S
C1605      C1606   1.404       .  A
C1606      F1610   1.358       .  S
C1607      C1612   1.408       .  A
C1607      C1616   1.406       .  A
C1612      C1613   1.399       .  A
C1612      F1617   1.358       .  S
C1613      C1614   1.405       .  A
C1613      H1618   1.083       .  S
C1614      C1615   1.405       .  A
C1615      C1616   1.396       .  A
C1615      F1619   1.357       .  S
C1616      H1620   1.083       .  S
C1621      C1622   1.409       .  A
C1621      C1626   1.402       .  A
C1621      H1631   1.083       .  S
C1622      C1627   1.494       .  S
C1622      C1623   1.409       .  A
C1623      C1624   1.400       .  A
C1623      F1628   1.357       .  S
C1624      C1625   1.402       .  A
C1624      H1629   1.083       .  S
C1625      C1626   1.405       .  A
C1626      F1630   1.358       .  S
C1627      C1632   1.408       .  A
C1627      C1636   1.409       .  A
C1632      C1633   1.399       .  A
C1632      F1637   1.357       .  S
C1633      C1634   1.405       .  A
C1633      H1638   1.083       .  S
C1634      C1635   1.409       .  A
C1635      C1636   1.403       .  A
C1635      F1639   1.358       .  S
C1636      H1640   1.083       .  S
C1641      C1642   1.399   1_455  A
C1641      C1646   1.395       .  A
C1641      H1651   1.083       .  S
C1642      C1647   1.474       .  S
C1642      C1643   1.404       .  A
C1643      C1644   1.401       .  A
C1643      F1648   1.357       .  S
C1644      C1645   1.408       .  A
C1644      H1649   1.083       .  S
C1645      C1646   1.411   1_655  A
C1646      F1650   1.358       .  S
C1647      C1652   1.397       .  A
C1647      C1656   1.401       .  A
C1652      C1653   1.395       .  A
C1652      F1657   1.358       .  S
C1653      C1654   1.416       .  A
C1653      H1658   1.073       .  S
C1654      C1655   1.415       .  A
C1655      C1656   1.403       .  A
C1655      F1659   1.357   1_655  S
C1656      H1660   1.083       .  S
C1661      C1662   1.403   1_455  A
C1661      C1666   1.395       .  A
C1661      H1671   1.083       .  S
C1662      C1667   1.476       .  S
C1662      C1663   1.403       .  A
C1663      C1664   1.395       .  A
C1663      F1668   1.358       .  S
C1664      C1665   1.410       .  A
C1664      H1669   1.083       .  S
C1665      C1666   1.408   1_655  A
C1666      F1670   1.357       .  S
C1667      C1672   1.403   1_655  A
C1667      C1676   1.399       .  A
C1672      C1673   1.396       .  A
C1672      F1677   1.358       .  S
C1673      C1674   1.410   1_455  A
C1673      H1678   1.076       .  S
C1674      C1675   1.414       .  A
C1675      C1676   1.395       .  A
C1675      F1679   1.358       .  S
C1676      H1680   1.083       .  S
C1681      C1682   1.403       .  A
C1681      C1686   1.393       .  A
C1681      H1691   1.083       .  S
C1682      C1687   1.479       .  S
C1682      C1683   1.410       .  A
C1683      C1684   1.395       .  A
C1683      F1688   1.358       .  S
C1684      C1685   1.400       .  A
C1684      H1689   1.083       .  S
C1685      C1686   1.407       .  A
C1686      F1690   1.358       .  S
C1687      C1692   1.408       .  A
C1687      C1696   1.401       .  A
C1692      C1693   1.396       .  A
C1692      F1697   1.358       .  S
C1693      C1694   1.404       .  A
C1693      H1698   1.083       .  S
C1694      C1695   1.409       .  A
C1695      C1696   1.392       .  A
C1695      F1699   1.356       .  S
C1696      H1700   1.083       .  S
C1701      C1702   1.402       .  A
C1701      C1706   1.397       .  A
C1701      H1711   1.083       .  S
C1702      C1707   1.476       .  S
C1702      C1703   1.403       .  A
C1703      C1704   1.395       .  A
C1703      F1708   1.357       .  S
C1704      C1705   1.406       .  A
C1704      H1709   1.083       .  S
C1705      C1706   1.412       .  A
C1706      F1710   1.358       .  S
C1707      C1712   1.407       .  A
C1707      C1716   1.402       .  A
C1712      C1713   1.400       .  A
C1712      F1717   1.358       .  S
C1713      C1714   1.403       .  A
C1713      H1718   1.083       .  S
C1714      C1715   1.405       .  A
C1715      C1716   1.395       .  A
C1715      F1719   1.357       .  S
C1716      H1720   1.083       .  S
C1721      C1722   1.405       .  A
C1721      C1726   1.397       .  A
C1721      H1731   1.083       .  S
C1722      C1727   1.474       .  S
C1722      C1723   1.404       .  A
C1723      C1724   1.394       .  A
C1723      F1728   1.357       .  S
C1724      C1725   1.402       .  A
C1724      H1729   1.084       .  S
C1725      C1726   1.404       .  A
C1726      F1730   1.358       .  S
C1727      C1732   1.404       .  A
C1727      C1736   1.403       .  A
C1732      C1733   1.396       .  A
C1732      F1737   1.358       .  S
C1733      C1734   1.403       .  A
C1733      H1738   1.083       .  S
C1734      C1735   1.407       .  A
C1735      C1736   1.396       .  A
C1735      F1739   1.357       .  S
C1736      H1740   1.083       .  S
C1741      C1742   1.404       .  A
C1741      C1746   1.397       .  A
C1741      H1751   1.083       .  S
C1742      C1747   1.485       .  S
C1742      C1743   1.410       .  A
C1743      C1744   1.400       .  A
C1743      F1748   1.358       .  S
C1744      C1745   1.401       .  A
C1744      H1749   1.083       .  S
C1745      C1746   1.404       .  A
C1746      F1750   1.355       .  S
C1747      C1752   1.408       .  A
C1747      C1756   1.405       .  A
C1752      C1753   1.399       .  A
C1752      F1757   1.358       .  S
C1753      C1754   1.408       .  A
C1753      H1758   1.084       .  S
C1754      C1755   1.406       .  A
C1755      C1756   1.397       .  A
C1755      F1759   1.357       .  S
C1756      H1760   1.083       .  S
C1761      C1762   1.408       .  A
C1761      C1766   1.402       .  A
C1761      H1771   1.083       .  S
C1762      C1767   1.498       .  S
C1762      C1763   1.410       .  A
C1763      C1764   1.404       .  A
C1763      F1768   1.357       .  S
C1764      C1765   1.407       .  A
C1764      H1769   1.083       .  S
C1765      C1766   1.407       .  A
C1766      F1770   1.358       .  S
C1767      C1772   1.411       .  A
C1767      C1776   1.406       .  A
C1772      C1773   1.405       .  A
C1772      F1777   1.357       .  S
C1773      C1774   1.404       .  A
C1773      H1778   1.083       .  S
C1774      C1775   1.411       .  A
C1775      C1776   1.401       .  A
C1775      F1779   1.357       .  S
C1776      H1780   1.083       .  S
C1781      C1782   1.400       .  A
C1781      C1786   1.397       .  A
C1781      H1791   1.083       .  S
C1782      C1787   1.477       .  S
C1782      C1783   1.405       .  A
C1783      C1784   1.396       .  A
C1783      F1788   1.357       .  S
C1784      C1785   1.406       .  A
C1784      H1789   1.083       .  S
C1785      C1786   1.414       .  A
C1786      F1790   1.358       .  S
C1787      C1792   1.408       .  A
C1787      C1796   1.401       .  A
C1792      C1793   1.401       .  A
C1792      F1797   1.357       .  S
C1793      C1794   1.403       .  A
C1793      H1798   1.083       .  S
C1794      C1795   1.405       .  A
C1795      C1796   1.394       .  A
C1795      F1799   1.357       .  S
C1796      H1800   1.083       .  S
C1801      C1802   1.402       .  A
C1801      C1806   1.397       .  A
C1801      H1811   1.083       .  S
C1802      C1807   1.484       .  S
C1802      C1803   1.407       .  A
C1803      C1804   1.402       .  A
C1803      F1808   1.358       .  S
C1804      C1805   1.408       .  A
C1804      H1809   1.083       .  S
C1805      C1806   1.410       .  A
C1806      F1810   1.357       .  S
C1807      C1812   1.407       .  A
C1807      C1816   1.405       .  A
C1812      C1813   1.399       .  A
C1812      F1817   1.357       .  S
C1813      C1814   1.403       .  A
C1813      H1818   1.083       .  S
C1814      C1815   1.407       .  A
C1815      C1816   1.398       .  A
C1815      F1819   1.358       .  S
C1816      H1820   1.083       .  S
C1821      C1822   1.406       .  A
C1821      C1826   1.396       .  A
C1821      H1831   1.083       .  S
C1822      C1827   1.483       .  S
C1822      C1823   1.409       .  A
C1823      C1824   1.392       .  A
C1823      F1828   1.357       .  S
C1824      C1825   1.401       .  A
C1824      H1829   1.084       .  S
C1825      C1826   1.406       .  A
C1826      F1830   1.358       .  S
C1827      C1832   1.410       .  A
C1827      C1836   1.405       .  A
C1832      C1833   1.398       .  A
C1832      F1837   1.358       .  S
C1833      C1834   1.403       .  A
C1833      H1838   1.083       .  S
C1834      C1835   1.402       .  A
C1835      C1836   1.393       .  A
C1835      F1839   1.357       .  S
C1836      H1840   1.083       .  S
C1841      C1842   1.401       .  A
C1841      C1846   1.395       .  A
C1841      H1851   1.083       .  S
C1842      C1847   1.480       .  S
C1842      C1843   1.408       .  A
C1843      C1844   1.398       .  A
C1843      F1848   1.357       .  S
C1844      C1845   1.404       .  A
C1844      H1849   1.083       .  S
C1845      C1846   1.412       .  A
C1846      F1850   1.358       .  S
C1847      C1852   1.402       .  A
C1847      C1856   1.401       .  A
C1852      C1853   1.397       .  A
C1852      F1857   1.358       .  S
C1853      C1854   1.415       .  A
C1853      H1858   1.084       .  S
C1854      C1855   1.415       .  A
C1855      C1856   1.397       .  A
C1855      F1859   1.351       .  S
C1856      H1860   1.083       .  S
C1861      C1862   1.406       .  A
C1861      C1866   1.396       .  A
C1861      H1871   1.083       .  S
C1862      C1867   1.475       .  S
C1862      C1863   1.404       .  A
C1863      C1864   1.397       .  A
C1863      F1868   1.358       .  S
C1864      C1865   1.403       .  A
C1864      H1869   1.084       .  S
C1865      C1866   1.400       .  A
C1866      F1870   1.357       .  S
C1867      C1872   1.401       .  A
C1867      C1876   1.407       .  A
C1872      C1873   1.392       .  A
C1872      F1877   1.358       .  S
C1873      C1874   1.406       .  A
C1873      H1878   1.084       .  S
C1874      C1875   1.402       .  A
C1875      C1876   1.401       .  A
C1875      F1879   1.357       .  S
C1876      H1880   1.083       .  S
C1881      C1882   1.405       .  A
C1881      C1886   1.399       .  A
C1881      H1891   1.083       .  S
C1882      C1887   1.486       .  S
C1882      C1883   1.405       .  A
C1883      C1884   1.399       .  A
C1883      F1888   1.357       .  S
C1884      C1885   1.408       .  A
C1884      H1889   1.083       .  S
C1885      C1886   1.411       .  A
C1886      F1890   1.358       .  S
C1887      C1892   1.403       .  A
C1887      C1896   1.403       .  A
C1892      C1893   1.398       .  A
C1892      F1897   1.358       .  S
C1893      C1894   1.412       .  A
C1893      H1898   1.075       .  S
C1894      C1895   1.416       .  A
C1895      C1896   1.401       .  A
C1895      F1899   1.358       .  S
C1896      H1900   1.083       .  S
C1901      C1902   1.405       .  A
C1901      C1906   1.400       .  A
C1901      H1911   1.083       .  S
C1902      C1907   1.481       .  S
C1902      C1903   1.408       .  A
C1903      C1904   1.393       .  A
C1903      F1908   1.358       .  S
C1904      C1905   1.402       .  A
C1904      H1909   1.084       .  S
C1905      C1906   1.405       .  A
C1906      F1910   1.357       .  S
C1907      C1912   1.407       .  A
C1907      C1916   1.403       .  A
C1912      C1913   1.401       .  A
C1912      F1917   1.357       .  S
C1913      C1914   1.405       .  A
C1913      H1918   1.082       .  S
C1914      C1915   1.407       .  A
C1915      C1916   1.391       .  A
C1915      F1919   1.358       .  S
C1916      H1920   1.084       .  S
C1921      C1922   1.404       .  A
C1921      C1926   1.396       .  A
C1921      H1931   1.083       .  S
C1922      C1927   1.481       .  S
C1922      C1923   1.405   1_556  A
C1923      C1924   1.393       .  A
C1923      F1928   1.357       .  S
C1924      C1925   1.406   1_554  A
C1924      H1929   1.083       .  S
C1925      C1926   1.412       .  A
C1926      F1930   1.358       .  S
C1927      C1932   1.405       .  A
C1927      C1936   1.402   1_556  A
C1932      C1933   1.397       .  A
C1932      F1937   1.358       .  S
C1933      C1934   1.412       .  A
C1933      H1938   1.076       .  S
C1934      C1935   1.412   1_556  A
C1935      C1936   1.394       .  A
C1935      F1939   1.358       .  S
C1936      H1940   1.083       .  S
C1941      C1942   1.407       .  A
C1941      C1946   1.404       .  A
C1941      H1951   1.083       .  S
C1942      C1947   1.482       .  S
C1942      C1943   1.403       .  A
C1943      C1944   1.392       .  A
C1943      F1948   1.358   1_556  S
C1944      C1945   1.407       .  A
C1944      H1949   1.084   1_556  S
C1945      C1946   1.406       .  A
C1946      F1950   1.355       .  S
C1947      C1952   1.403       .  A
C1947      C1956   1.408       .  A
C1952      C1953   1.397       .  A
C1952      F1957   1.358       .  S
C1953      C1954   1.407       .  A
C1953      H1958   1.083       .  S
C1954      C1955   1.401       .  A
C1955      C1956   1.399       .  A
C1955      F1959   1.357   1_556  S
C1956      H1960   1.083   1_556  S
C1961      C1962   1.405   1_554  A
C1961      C1966   1.396       .  A
C1961      H1971   1.082       .  S
C1962      C1967   1.490       .  S
C1962      C1963   1.410       .  A
C1963      C1964   1.398       .  A
C1963      F1968   1.358       .  S
C1964      C1965   1.407       .  A
C1964      H1969   1.083       .  S
C1965      C1966   1.408   1_556  A
C1966      F1970   1.357       .  S
C1967      C1972   1.410   1_556  A
C1967      C1976   1.402       .  A
C1972      C1973   1.400       .  A
C1972      F1977   1.357       .  S
C1973      C1974   1.408       .  A
C1973      H1978   1.077       .  S
C1974      C1975   1.413   1_554  A
C1975      C1976   1.394       .  A
C1975      F1979   1.358       .  S
C1976      H1980   1.083       .  S
C1981      C1982   1.407   1_554  A
C1981      C1986   1.398       .  A
C1981      H1991   1.083       .  S
C1982      C1987   1.474       .  S
C1982      C1983   1.405       .  A
C1983      C1984   1.389       .  A
C1983      F1988   1.358       .  S
C1984      C1985   1.401       .  A
C1984      H1989   1.084       .  S
C1985      C1986   1.401   1_556  A
C1986      F1990   1.357       .  S
C1987      C1992   1.406       .  A
C1987      C1996   1.403       .  A
C1992      C1993   1.397       .  A
C1992      F1997   1.357       .  S
C1993      C1994   1.402       .  A
C1993      H1998   1.080       .  S
C1994      C1995   1.406       .  A
C1995      C1996   1.390       .  A
C1995      F1999   1.359       .  S
C1996      H2000   1.083       .  S
C2001      C2002   1.402       .  A
C2001      C2006   1.396       .  A
C2001      H2011   1.083       .  S
C2002      C2007   1.478       .  S
C2002      C2003   1.404       .  A
C2003      C2004   1.391       .  A
C2003      F2008   1.358       .  S
C2004      C2005   1.408       .  A
C2004      H2009   1.082       .  S
C2005      C2006   1.415       .  A
C2006      F2010   1.356       .  S
C2007      C2012   1.408       .  A
C2007      C2016   1.403       .  A
C2012      C2013   1.398       .  A
C2012      F2017   1.358       .  S
C2013      C2014   1.403       .  A
C2013      H2018   1.083       .  S
C2014      C2015   1.406       .  A
C2015      C2016   1.392       .  A
C2015      F2019   1.358       .  S
C2016      H2020   1.083       .  S
C2021      C2022   1.401       .  A
C2021      C2026   1.391       .  A
C2021      H2031   1.084       .  S
C2022      C2027   1.467       .  S
C2022      C2023   1.404       .  A
C2023      C2024   1.399       .  A
C2023      F2028   1.357       .  S
C2024      C2025   1.404       .  A
C2024      H2029   1.083       .  S
C2025      C2026   1.405       .  A
C2026      F2030   1.358       .  S
C2027      C2032   1.403       .  A
C2027      C2036   1.402       .  A
C2032      C2033   1.397       .  A
C2032      F2037   1.357       .  S
C2033      C2034   1.401       .  A
C2033      H2038   1.083       .  S
C2034      C2035   1.404       .  A
C2035      C2036   1.391       .  A
C2035      F2039   1.358       .  S
C2036      H2040   1.084       .  S
C2041      C2042   1.405   1_554  A
C2041      C2046   1.400       .  A
C2041      H2051   1.083       .  S
C2042      C2047   1.476       .  S
C2042      C2043   1.402       .  A
C2043      C2044   1.396       .  A
C2043      F2048   1.358       .  S
C2044      C2045   1.407       .  A
C2044      H2049   1.081       .  S
C2045      C2046   1.406   1_556  A
C2046      F2050   1.357       .  S
C2047      C2052   1.398   1_556  A
C2047      C2056   1.402       .  A
C2052      C2053   1.393       .  A
C2052      F2057   1.358       .  S
C2053      C2054   1.413   1_554  A
C2053      H2058   1.074       .  S
C2054      C2055   1.416       .  A
C2055      C2056   1.402       .  A
C2055      F2059   1.358       .  S
C2056      H2060   1.083       .  S
C2061      C2062   1.404   1_556  A
C2061      C2066   1.397       .  A
C2061      H2071   1.083       .  S
C2062      C2067   1.470       .  S
C2062      C2063   1.401       .  A
C2063      C2064   1.395       .  A
C2063      F2068   1.358       .  S
C2064      C2065   1.406       .  A
C2064      H2069   1.083       .  S
C2065      C2066   1.404   1_554  A
C2066      F2070   1.357       .  S
C2067      C2072   1.401   1_554  A
C2067      C2076   1.402       .  A
C2072      C2073   1.391       .  A
C2072      F2077   1.358       .  S
C2073      C2074   1.406   1_556  A
C2073      H2078   1.083       .  S
C2074      C2075   1.411       .  A
C2075      C2076   1.401       .  A
C2075      F2079   1.357       .  S
C2076      H2080   1.083       .  S
C2081      C2082   1.399       .  A
C2081      C2086   1.394       .  A
C2081      H2091   1.083       .  S
C2082      C2087   1.472       .  S
C2082      C2083   1.401   1_554  A
C2083      C2084   1.393       .  A
C2083      F2088   1.358       .  S
C2084      C2085   1.411   1_556  A
C2084      H2089   1.076       .  S
C2085      C2086   1.413       .  A
C2086      F2090   1.358       .  S
C2087      C2092   1.403       .  A
C2087      C2096   1.404   1_554  A
C2092      C2093   1.392       .  A
C2092      F2097   1.358       .  S
C2093      C2094   1.406   1_554  A
C2093      H2098   1.084       .  S
C2094      C2095   1.406       .  A
C2095      C2096   1.395       .  A
C2095      F2099   1.357       .  S
C2096      H2100   1.083       .  S
C2101      C2102   1.401   1_556  A
C2101      C2106   1.396       .  A
C2101      H2111   1.084       .  S
C2102      C2107   1.481       .  S
C2102      C2103   1.408       .  A
C2103      C2104   1.403       .  A
C2103      F2108   1.357       .  S
C2104      C2105   1.403       .  A
C2104      H2109   1.083       .  S
C2105      C2106   1.409   1_554  A
C2106      F2110   1.358       .  S
C2107      C2112   1.400       .  A
C2107      C2116   1.409       .  A
C2112      C2113   1.395       .  A
C2112      F2117   1.357       .  S
C2113      C2114   1.404       .  A
C2113      H2118   1.080       .  S
C2114      C2115   1.407       .  A
C2115      C2116   1.408       .  A
C2115      F2119   1.356       .  S
C2116      H2120   1.083       .  S
C2121      C2122   1.407       .  A
C2121      C2126   1.402       .  A
C2121      H2131   1.083       .  S
C2122      C2127   1.494       .  S
C2122      C2123   1.407   1_545  A
C2123      C2124   1.400       .  A
C2123      F2128   1.357       .  S
C2124      C2125   1.410   1_565  A
C2124      H2129   1.083       .  S
C2125      C2126   1.410       .  A
C2126      F2130   1.357       .  S
C2127      C2132   1.406       .  A
C2127      C2136   1.404   1_545  A
C2132      C2133   1.403       .  A
C2132      F2137   1.358       .  S
C2133      C2134   1.413       .  A
C2133      H2138   1.076       .  S
C2134      C2135   1.415   1_545  A
C2135      C2136   1.401       .  A
C2135      F2139   1.358       .  S
C2136      H2140   1.083       .  S
C2141      C2142   1.403       .  A
C2141      C2146   1.400       .  A
C2141      H2151   1.083       .  S
C2142      C2147   1.482       .  S
C2142      C2143   1.403       .  A
C2143      C2144   1.398       .  A
C2143      F2148   1.358       .  S
C2144      C2145   1.414       .  A
C2144      H2149   1.079       .  S
C2145      C2146   1.411       .  A
C2146      F2150   1.357       .  S
C2147      C2152   1.406   1_545  A
C2147      C2156   1.403       .  A
C2152      C2153   1.398       .  A
C2152      F2157   1.358       .  S
C2153      C2154   1.406   1_565  A
C2153      H2158   1.083       .  S
C2154      C2155   1.409       .  A
C2155      C2156   1.398       .  A
C2155      F2159   1.358       .  S
C2156      H2160   1.083       .  S
C2161      C2162   1.406       .  A
C2161      C2166   1.402       .  A
C2161      H2171   1.083       .  S
C2162      C2167   1.485       .  S
C2162      C2163   1.406       .  A
C2163      C2164   1.395       .  A
C2163      F2168   1.357       .  S
C2164      C2165   1.405       .  A
C2164      H2169   1.083       .  S
C2165      C2166   1.408       .  A
C2166      F2170   1.358       .  S
C2167      C2172   1.406       .  A
C2167      C2176   1.404       .  A
C2172      C2173   1.401       .  A
C2172      F2177   1.358       .  S
C2173      C2174   1.408       .  A
C2173      H2178   1.082       .  S
C2174      C2175   1.409       .  A
C2175      C2176   1.397       .  A
C2175      F2179   1.357       .  S
C2176      H2180   1.083       .  S
C2181      C2182   1.404       .  A
C2181      C2186   1.399       .  A
C2181      H2191   1.083       .  S
C2182      C2187   1.466       .  S
C2182      C2183   1.399       .  A
C2183      C2184   1.389       .  A
C2183      F2188   1.357       .  S
C2184      C2185   1.403       .  A
C2184      H2189   1.083       .  S
C2185      C2186   1.406       .  A
C2186      F2190   1.358       .  S
C2187      C2192   1.404       .  A
C2187      C2196   1.398       .  A
C2192      C2193   1.394       .  A
C2192      F2197   1.358       .  S
C2193      C2194   1.405       .  A
C2193      H2198   1.083       .  S
C2194      C2195   1.411       .  A
C2195      C2196   1.394       .  A
C2195      F2199   1.357       .  S
C2196      H2200   1.084       .  S
C2201      C2202   1.405       .  A
C2201      C2206   1.398       .  A
C2201      H2211   1.083       .  S
C2202      C2207   1.490       .  S
C2202      C2203   1.409       .  A
C2203      C2204   1.399       .  A
C2203      F2208   1.358       .  S
C2204      C2205   1.407       .  A
C2204      H2209   1.083       .  S
C2205      C2206   1.411       .  A
C2206      F2210   1.357       .  S
C2207      C2212   1.411       .  A
C2207      C2216   1.407       .  A
C2212      C2213   1.400       .  A
C2212      F2217   1.358       .  S
C2213      C2214   1.401       .  A
C2213      H2218   1.083       .  S
C2214      C2215   1.401       .  A
C2215      C2216   1.398       .  A
C2215      F2219   1.357       .  S
C2216      H2220   1.083       .  S
C2221      C2222   1.400       .  A
C2221      C2226   1.400       .  A
C2221      H2231   1.083       .  S
C2222      C2227   1.477       .  S
C2222      C2223   1.400       .  A
C2223      C2224   1.396       .  A
C2223      F2228   1.358       .  S
C2224      C2225   1.413       .  A
C2224      H2229   1.075       .  S
C2225      C2226   1.414       .  A
C2226      F2230   1.358       .  S
C2227      C2232   1.403       .  A
C2227      C2236   1.403       .  A
C2232      C2233   1.398       .  A
C2232      F2237   1.358       .  S
C2233      C2234   1.408       .  A
C2233      H2238   1.084       .  S
C2234      C2235   1.406       .  A
C2235      C2236   1.397       .  A
C2235      F2239   1.357       .  S
C2236      H2240   1.083       .  S
C2241      C2242   1.405       .  A
C2241      C2246   1.400       .  A
C2241      H2251   1.083       .  S
C2242      C2247   1.484       .  S
C2242      C2243   1.406       .  A
C2243      C2244   1.397       .  A
C2243      F2248   1.358       .  S
C2244      C2245   1.407       .  A
C2244      H2249   1.083       .  S
C2245      C2246   1.408       .  A
C2246      F2250   1.357       .  S
C2247      C2252   1.406       .  A
C2247      C2256   1.400       .  A
C2252      C2253   1.401       .  A
C2252      F2257   1.358       .  S
C2253      C2254   1.411       .  A
C2253      H2258   1.079       .  S
C2254      C2255   1.413       .  A
C2255      C2256   1.395       .  A
C2255      F2259   1.357       .  S
C2256      H2260   1.083       .  S
C2261      C2262   1.408       .  A
C2261      C2266   1.401       .  A
C2261      H2271   1.083       .  S
C2262      C2267   1.505       .  S
C2262      C2263   1.414       .  A
C2263      C2264   1.409       .  A
C2263      F2268   1.357       .  S
C2264      C2265   1.406       .  A
C2264      H2269   1.083       .  S
C2265      C2266   1.405       .  A
C2266      F2270   1.356       .  S
C2267      C2272   1.412       .  A
C2267      C2276   1.410       .  A
C2272      C2273   1.405       .  A
C2272      F2277   1.357       .  S
C2273      C2274   1.409       .  A
C2273      H2278   1.083       .  S
C2274      C2275   1.409       .  A
C2275      C2276   1.405       .  A
C2275      F2279   1.357       .  S
C2276      H2280   1.083       .  S
C2281      C2282   1.402       .  A
C2281      C2286   1.401       .  A
C2281      H2291   1.083       .  S
C2282      C2287   1.481       .  S
C2282      C2283   1.404       .  A
C2283      C2284   1.401       .  A
C2283      F2288   1.358       .  S
C2284      C2285   1.408       .  A
C2284      H2289   1.083       .  S
C2285      C2286   1.412       .  A
C2286      F2290   1.357       .  S
C2287      C2292   1.405       .  A
C2287      C2296   1.404       .  A
C2292      C2293   1.398       .  A
C2292      F2297   1.357       .  S
C2293      C2294   1.406       .  A
C2293      H2298   1.083       .  S
C2294      C2295   1.406       .  A
C2295      C2296   1.399       .  A
C2295      F2299   1.357       .  S
C2296      H2300   1.083       .  S
C2301      C2302   1.408       .  A
C2301      C2306   1.402       .  A
C2301      H2311   1.083       .  S
C2302      C2307   1.501       .  S
C2302      C2303   1.410       .  A
C2303      C2304   1.404       .  A
C2303      F2308   1.357       .  S
C2304      C2305   1.409       .  A
C2304      H2309   1.083       .  S
C2305      C2306   1.409       .  A
C2306      F2310   1.357       .  S
C2307      C2312   1.410       .  A
C2307      C2316   1.408       .  A
C2312      C2313   1.402       .  A
C2312      F2317   1.357       .  S
C2313      C2314   1.405       .  A
C2313      H2318   1.083       .  S
C2314      C2315   1.415       .  A
C2315      C2316   1.407       .  A
C2315      F2319   1.358       .  S
C2316      H2320   1.083       .  S
C2321      C2322   1.405       .  A
C2321      C2326   1.396       .  A
C2321      H2331   1.083       .  S
C2322      C2327   1.485       .  S
C2322      C2323   1.410       .  A
C2323      C2324   1.400       .  A
C2323      F2328   1.358       .  S
C2324      C2325   1.404       .  A
C2324      H2329   1.084       .  S
C2325      C2326   1.403       .  A
C2326      F2330   1.357       .  S
C2327      C2332   1.410       .  A
C2327      C2336   1.406       .  A
C2332      C2333   1.396       .  A
C2332      F2337   1.357       .  S
C2333      C2334   1.401       .  A
C2333      H2338   1.084       .  S
C2334      C2335   1.405       .  A
C2335      C2336   1.398       .  A
C2335      F2339   1.358       .  S
C2336      H2340   1.083       .  S
C2341      C2342   1.406       .  A
C2341      C2346   1.395       .  A
C2341      H2351   1.083       .  S
C2342      C2347   1.483       .  S
C2342      C2343   1.409       .  A
C2343      C2344   1.394       .  A
C2343      F2348   1.357       .  S
C2344      C2345   1.402       .  A
C2344      H2349   1.084       .  S
C2345      C2346   1.404       .  A
C2346      F2350   1.358       .  S
C2347      C2352   1.405       .  A
C2347      C2356   1.403       .  A
C2352      C2353   1.394       .  A
C2352      F2357   1.358       .  S
C2353      C2354   1.409       .  A
C2353      H2358   1.080       .  S
C2354      C2355   1.413       .  A
C2355      C2356   1.396       .  A
C2355      F2359   1.357       .  S
C2356      H2360   1.083       .  S
C2361      C2362   1.404       .  A
C2361      C2366   1.401       .  A
C2361      H2371   1.083       .  S
C2362      C2367   1.493       .  S
C2362      C2363   1.409       .  A
C2363      C2364   1.405       .  A
C2363      F2368   1.358       .  S
C2364      C2365   1.407       .  A
C2364      H2369   1.083       .  S
C2365      C2366   1.411       .  A
C2366      F2370   1.357       .  S
C2367      C2372   1.409       .  A
C2367      C2376   1.404       .  A
C2372      C2373   1.403       .  A
C2372      F2377   1.357       .  S
C2373      C2374   1.406       .  A
C2373      H2378   1.082       .  S
C2374      C2375   1.412       .  A
C2375      C2376   1.399       .  A
C2375      F2379   1.357       .  S
C2376      H2380   1.083       .  S
C2381      C2382   1.407       .  A
C2381      C2386   1.404       .  A
C2381      H2391   1.083       .  S
C2382      C2387   1.485       .  S
C2382      C2383   1.405       .  A
C2383      C2384   1.393       .  A
C2383      F2388   1.358       .  S
C2384      C2385   1.405       .  A
C2384      H2389   1.083       .  S
C2385      C2386   1.409       .  A
C2386      F2390   1.356       .  S
C2387      C2392   1.405       .  A
C2387      C2396   1.410       .  A
C2392      C2393   1.396       .  A
C2392      F2397   1.357       .  S
C2393      C2394   1.403       .  A
C2393      H2398   1.082       .  S
C2394      C2395   1.402       .  A
C2395      C2396   1.402       .  A
C2395      F2399   1.357       .  S
C2396      H2400   1.083       .  S
C2401      C2402   1.404   1_565  A
C2401      C2406   1.401       .  A
C2401      H2411   1.083       .  S
C2402      C2407   1.477       .  S
C2402      C2403   1.402       .  A
C2403      C2404   1.394       .  A
C2403      F2408   1.357       .  S
C2404      C2405   1.407       .  A
C2404      H2409   1.083       .  S
C2405      C2406   1.410   1_545  A
C2406      F2410   1.358       .  S
C2407      C2412   1.402   1_545  A
C2407      C2416   1.400       .  A
C2412      C2413   1.398       .  A
C2412      F2417   1.358       .  S
C2413      C2414   1.413   1_565  A
C2413      H2418   1.077       .  S
C2414      C2415   1.413       .  A
C2415      C2416   1.396       .  A
C2415      F2419   1.358       .  S
C2416      H2420   1.083       .  S
C2421      C2422   1.401   1_565  A
C2421      C2426   1.393       .  A
C2421      H2431   1.084       .  S
C2422      C2427   1.472       .  S
C2422      C2423   1.403       .  A
C2423      C2424   1.396       .  A
C2423      F2428   1.358       .  S
C2424      C2425   1.409       .  A
C2424      H2429   1.083       .  S
C2425      C2426   1.408   1_545  A
C2426      F2430   1.357       .  S
C2427      C2432   1.399       .  A
C2427      C2436   1.398   1_545  A
C2432      C2433   1.395       .  A
C2432      F2437   1.358       .  S
C2433      C2434   1.414       .  A
C2433      H2438   1.084       .  S
C2434      C2435   1.418   1_545  A
C2435      C2436   1.395       .  A
C2435      F2439   1.350       .  S
C2436      H2440   1.084       .  S
C2441      C2442   1.406       .  A
C2441      C2446   1.399       .  A
C2441      H2451   1.083       .  S
C2442      C2447   1.485       .  S
C2442      C2443   1.407       .  A
C2443      C2444   1.398       .  A
C2443      F2448   1.357       .  S
C2444      C2445   1.405       .  A
C2444      H2449   1.083       .  S
C2445      C2446   1.407       .  A
C2446      F2450   1.358       .  S
C2447      C2452   1.406       .  A
C2447      C2456   1.405       .  A
C2452      C2453   1.398       .  A
C2452      F2457   1.358       .  S
C2453      C2454   1.407       .  A
C2453      H2458   1.081       .  S
C2454      C2455   1.408       .  A
C2455      C2456   1.398       .  A
C2455      F2459   1.357       .  S
C2456      H2460   1.083       .  S
C2461      C2462   1.403       .  A
C2461      C2466   1.397       .  A
C2461      H2471   1.083       .  S
C2462      C2467   1.487       .  S
C2462      C2463   1.408       .  A
C2463      C2464   1.399       .  A
C2463      F2468   1.358       .  S
C2464      C2465   1.408       .  A
C2464      H2469   1.083       .  S
C2465      C2466   1.411       .  A
C2466      F2470   1.357       .  S
C2467      C2472   1.410       .  A
C2467      C2476   1.407       .  A
C2472      C2473   1.397       .  A
C2472      F2477   1.357       .  S
C2473      C2474   1.398       .  A
C2473      H2478   1.084       .  S
C2474      C2475   1.401       .  A
C2475      C2476   1.397       .  A
C2475      F2479   1.358       .  S
C2476      H2480   1.083       .  S
C2481      C2482   1.403       .  A
C2481      C2486   1.396       .  A
C2481      H2491   1.083       .  S
C2482      C2487   1.480       .  S
C2482      C2483   1.404       .  A
C2483      C2484   1.395       .  A
C2483      F2488   1.358       .  S
C2484      C2485   1.408       .  A
C2484      H2489   1.081       .  S
C2485      C2486   1.411       .  A
C2486      F2490   1.356       .  S
C2487      C2492   1.405       .  A
C2487      C2496   1.406       .  A
C2492      C2493   1.393       .  A
C2492      F2497   1.358       .  S
C2493      C2494   1.406       .  A
C2493      H2498   1.083       .  S
C2494      C2495   1.407       .  A
C2495      C2496   1.398       .  A
C2495      F2499   1.357       .  S
C2496      H2500   1.083       .  S
C2501      C2502   1.405       .  A
C2501      C2506   1.401       .  A
C2501      H2511   1.083       .  S
C2502      C2507   1.488       .  S
C2502      C2503   1.407       .  A
C2503      C2504   1.397       .  A
C2503      F2508   1.357       .  S
C2504      C2505   1.407       .  A
C2504      H2509   1.083       .  S
C2505      C2506   1.413       .  A
C2506      F2510   1.358       .  S
C2507      C2512   1.411       .  A
C2507      C2516   1.405       .  A
C2512      C2513   1.404       .  A
C2512      F2517   1.358       .  S
C2513      C2514   1.402       .  A
C2513      H2518   1.083       .  S
C2514      C2515   1.403       .  A
C2515      C2516   1.396       .  A
C2515      F2519   1.357       .  S
C2516      H2520   1.083       .  S
C2521      C2522   1.408       .  A
C2521      C2526   1.401       .  A
C2521      H2531   1.083       .  S
C2522      C2527   1.490       .  S
C2522      C2523   1.406       .  A
C2523      C2524   1.397       .  A
C2523      F2528   1.357       .  S
C2524      C2525   1.406       .  A
C2524      H2529   1.083       .  S
C2525      C2526   1.410       .  A
C2526      F2530   1.358       .  S
C2527      C2532   1.404       .  A
C2527      C2536   1.405       .  A
C2532      C2533   1.396       .  A
C2532      F2537   1.357       .  S
C2533      C2534   1.412       .  A
C2533      H2538   1.076       .  S
C2534      C2535   1.413       .  A
C2535      C2536   1.401       .  A
C2535      F2539   1.358       .  S
C2536      H2540   1.083       .  S
C2541      C2542   1.402       .  A
C2541      C2546   1.393       .  A
C2541      H2551   1.083       .  S
C2542      C2547   1.484       .  S
C2542      C2543   1.407       .  A
C2543      C2544   1.399       .  A
C2543      F2548   1.358       .  S
C2544      C2545   1.412       .  A
C2544      H2549   1.077       .  S
C2545      C2546   1.411       .  A
C2546      F2550   1.358       .  S
C2547      C2552   1.408       .  A
C2547      C2556   1.406       .  A
C2552      C2553   1.393       .  A
C2552      F2557   1.358       .  S
C2553      C2554   1.403       .  A
C2553      H2558   1.083       .  S
C2554      C2555   1.407       .  A
C2555      C2556   1.399       .  A
C2555      F2559   1.357       .  S
C2556      H2560   1.083       .  S
C2561      C2562   1.404       .  A
C2561      C2566   1.399       .  A
C2561      H2571   1.083       .  S
C2562      C2567   1.483       .  S
C2562      C2563   1.407       .  A
C2563      C2564   1.398       .  A
C2563      F2568   1.358       .  S
C2564      C2565   1.404       .  A
C2564      H2569   1.083       .  S
C2565      C2566   1.407       .  A
C2566      F2570   1.357       .  S
C2567      C2572   1.407       .  A
C2567      C2576   1.405       .  A
C2572      C2573   1.397       .  A
C2572      F2577   1.357       .  S
C2573      C2574   1.405       .  A
C2573      H2578   1.083       .  S
C2574      C2575   1.407       .  A
C2575      C2576   1.400       .  A
C2575      F2579   1.358       .  S
C2576      H2580   1.083       .  S
C2581      C2582   1.404       .  A
C2581      C2586   1.399       .  A
C2581      H2591   1.083       .  S
C2582      C2587   1.485       .  S
C2582      C2583   1.405       .  A
C2583      C2584   1.401       .  A
C2583      F2588   1.357       .  S
C2584      C2585   1.408       .  A
C2584      H2589   1.083       .  S
C2585      C2586   1.411       .  A
C2586      F2590   1.358       .  S
C2587      C2592   1.404       .  A
C2587      C2596   1.408       .  A
C2592      C2593   1.395       .  A
C2592      F2597   1.358       .  S
C2593      C2594   1.404       .  A
C2593      H2598   1.083       .  S
C2594      C2595   1.404       .  A
C2595      C2596   1.405       .  A
C2595      F2599   1.357       .  S
C2596      H2600   1.083       .  S
C2601      C2602   1.406       .  A
C2601      C2606   1.401       .  A
C2601      H2611   1.083       .  S
C2602      C2607   1.495       .  S
C2602      C2603   1.410       .  A
C2603      C2604   1.400       .  A
C2603      F2608   1.357       .  S
C2604      C2605   1.406       .  A
C2604      H2609   1.082       .  S
C2605      C2606   1.410       .  A
C2606      F2610   1.357       .  S
C2607      C2612   1.410       .  A
C2607      C2616   1.407       .  A
C2612      C2613   1.401       .  A
C2612      F2617   1.358       .  S
C2613      C2614   1.406       .  A
C2613      H2618   1.083       .  S
C2614      C2615   1.407       .  A
C2615      C2616   1.400       .  A
C2615      F2619   1.357       .  S
C2616      H2620   1.083       .  S
C2621      C2622   1.399       .  A
C2621      C2626   1.395       .  A
C2621      H2631   1.083       .  S
C2622      C2627   1.469       .  S
C2622      C2623   1.402       .  A
C2623      C2624   1.395       .  A
C2623      F2628   1.358       .  S
C2624      C2625   1.407       .  A
C2624      H2629   1.083       .  S
C2625      C2626   1.411       .  A
C2626      F2630   1.358       .  S
C2627      C2632   1.403       .  A
C2627      C2636   1.399       .  A
C2632      C2633   1.398       .  A
C2632      F2637   1.358       .  S
C2633      C2634   1.405       .  A
C2633      H2638   1.083       .  S
C2634      C2635   1.408       .  A
C2635      C2636   1.393       .  A
C2635      F2639   1.357       .  S
C2636      H2640   1.084       .  S
