geometry optimzed in LAMMPS
_audit_creation_date              2020-11-30 
_audit_creation_method            'lammps2cif' 
_symmetry_space_group_name_H-M    'P1' 
_symmetry_Int_Tables_number       1 
_symmetry_cell_setting            triclinic 
loop_ 
_symmetry_equiv_pos_as_xyz 
  x,y,z 
_cell_length_a                    29.421152393978453 
_cell_length_b                    29.413408864071496 
_cell_length_c                    29.41568154505216 
_cell_angle_alpha                 90.00428558943844 
_cell_angle_beta                  90.3254619284626 
_cell_angle_gamma                 89.99836997178929 
loop_ 
_atom_site_label 
_atom_site_type_symbol 
_atom_site_fract_x 
_atom_site_fract_y 
_atom_site_fract_z 
_atom_site_charge 
C1          C  0.70894791  0.76865650  0.76589232     0.04190
C2          C  0.72675204  0.72933577  0.78594409    -0.11960
C3          C  0.76586037  0.70890583  0.76805466     0.01690
C4          C  0.78713410  0.72798969  0.73014937    -0.10490
C5          C  0.76936806  0.76749404  0.70999199     0.04180
C6          C  0.73030398  0.78774570  0.72784574    -0.09910
H7          H  0.70944915  0.71388972  0.81451600     0.09770
H8          H  0.81660205  0.71143284  0.71557678     0.07300
H9          H  0.71579255  0.81743380  0.71139397     0.07150
C10         C  0.26752316  0.78253251  0.22004318     0.04190
C11         C  0.28780316  0.76466340  0.25921579    -0.11960
C12         C  0.26984772  0.72555596  0.27958181     0.01690
C13         C  0.23167300  0.70431498  0.26061452    -0.10490
C14         C  0.21131159  0.72217069  0.22121828     0.04180
C15         C  0.22920080  0.76126390  0.20099317    -0.09910
H16         H  0.31655904  0.78197637  0.27466086     0.09770
H17         H  0.21702953  0.67486377  0.27721156     0.07300
H18         H  0.21255221  0.77588880  0.17142344     0.07150
C19         C  0.72275793  0.76654910  0.28061837     0.04190
C20         C  0.76176587  0.78703205  0.26292165    -0.11960
C21         C  0.78336810  0.76809241  0.22494411     0.01690
C22         C  0.76587282  0.72869266  0.20478884    -0.10490
C23         C  0.72682471  0.70801556  0.22251074     0.04180
C24         C  0.70529593  0.72694436  0.26036538    -0.09910
H25         H  0.77603087  0.81681026  0.27942900     0.09770
H26         H  0.78335371  0.71339824  0.17624127     0.07300
H27         H  0.67585188  0.71022492  0.27479450     0.07150
C28         C  0.21103450  0.26922909  0.26454484     0.04190
C29         C  0.22850382  0.23015478  0.28532112    -0.11960
C30         C  0.26711984  0.20883033  0.26743334     0.01690
C31         C  0.28817252  0.22671396  0.22887000    -0.10490
C32         C  0.27061165  0.26590297  0.20803248     0.04180
C33         C  0.23215248  0.28714419  0.22587837    -0.09910
H34         H  0.21123678  0.21551669  0.31433615     0.09770
H35         H  0.31714428  0.20935471  0.21422772     0.07300
H36         H  0.21777281  0.31656796  0.20883232     0.07150
C37         C  0.72295144  0.22280174  0.20812493     0.04190
C38         C  0.76232123  0.20279239  0.22592354    -0.11960
C39         C  0.78256510  0.22050996  0.26541321     0.01690
C40         C  0.76329875  0.25810635  0.28705896    -0.10490
C41         C  0.72377426  0.27817052  0.26927525     0.04180
C42         C  0.70365343  0.26057799  0.22983901    -0.09910
H43         H  0.77796528  0.17446217  0.20832293     0.09770
H44         H  0.77978869  0.27258752  0.31679453     0.07300
H45         H  0.67396652  0.27706987  0.21530067     0.07150
C46         C  0.76807381  0.27804623  0.72001515     0.04190
C47         C  0.72853683  0.25787005  0.70235188    -0.11960
C48         C  0.70937059  0.22028844  0.72413685     0.01690
C49         C  0.72971820  0.20271869  0.76362981    -0.10490
C50         C  0.76907085  0.22284554  0.78131060     0.04180
C51         C  0.78827568  0.26058726  0.75946857    -0.09910
H52         H  0.71197271  0.27224164  0.67260743     0.09770
H53         H  0.71416307  0.17440358  0.78132949     0.07300
H54         H  0.81795879  0.27715950  0.77392290     0.07150
C55         C  0.22188771  0.72527644  0.71040805     0.04190
C56         C  0.26013068  0.70395867  0.72919125    -0.11960
C57         C  0.28051244  0.72158214  0.76870090     0.01690
C58         C  0.26258705  0.76051271  0.78919861    -0.10490
C59         C  0.22422851  0.78185689  0.77032921     0.04180
C60         C  0.20391724  0.76422425  0.73106668    -0.09910
H61         H  0.27479448  0.67463623  0.71238428     0.09770
H62         H  0.27924399  0.77496921  0.81884934     0.07300
H63         H  0.17512130  0.78160920  0.71577940     0.07150
O64         O  0.11471240  0.05871875  0.00001974    -0.87290
C65         C  0.98299795  0.05985957  0.95457256     0.88740
Mg66       Mg  0.14163237  0.99764523  0.02439623     1.58150
O67         O  0.00025606  0.11433822  0.05894831    -0.87020
O68         O  0.09795404  0.12781404  0.02203172    -0.74350
C69         C  0.98821872  0.91344511  0.16854411     0.93790
O70         O  0.05913119  0.97974521  0.94865744    -0.74160
O71         O  0.02402980  0.89970615  0.14819846    -0.81670
Mg72       Mg  0.08303572  0.05374696  0.93521690     1.57960
C73         C  0.92814419  0.08882245  0.16660887     0.93710
O74         O  0.11115091  0.12887129  0.92450111    -0.79930
H75         H  0.03357045  0.15894644  0.09825069    -0.05270
C76         C  0.95502709  0.98271123  0.06063860     0.88650
O77         O  0.12840589  0.02227936  0.09806148    -0.74440
O78         O  0.01984723  0.07589358  0.96760110    -0.87200
O79         O  0.92531696  0.11133206  0.12953872    -0.80010
C80         C  0.91372535  0.16768672  0.98727447     0.93830
C81         C  0.08867534  0.16593364  0.92716378     0.93680
Mg82       Mg  0.99827541  0.02386303  0.14156735     1.57950
O83         O  0.97377190  0.95382435  0.16366753    -0.79940
O84         O  0.02259033  0.09764230  0.12812894    -0.74180
O85         O  0.95402984  0.16289689  0.97290829    -0.80020
O86         O  0.14706940  0.02266991  0.90009977    -0.81730
O87         O  0.13075607  0.92510884  0.11218643    -0.80050
C88         C  0.01916602  0.12527783  0.09499794     0.88120
O89         O  0.05956567  0.99981991  0.11509009    -0.87190
O90         O  0.96800730  0.01959067  0.07658186    -0.87300
O91         O  0.98094085  0.94787075  0.05957934    -0.74350
Mg92       Mg  0.02408765  0.14090944  0.99755963     1.57970
O93         O  0.90006371  0.14714317  0.02301230    -0.81730
H94         H  0.15942682  0.09815184  0.03304930    -0.05450
O95         O  0.07681275  0.96726022  0.02038666    -0.87000
H96         H  0.04723158  0.91990528  0.98123794    -0.05280
H97         H  0.09897131  0.03347675  0.15939662    -0.05450
C98         C  0.06064164  0.95404565  0.98363877     0.88100
C99         C  0.12567640  0.09479981  0.01870391     0.88680
C100        C  0.09555038  0.01888341  0.12581447     0.88730
H101        H  0.92090131  0.98005509  0.04707763    -0.05430
O102        O  0.94824429  0.05867448  0.98038076    -0.74460
Mg103      Mg  0.05510440  0.93494468  0.08389296     1.58000
H104        H  0.98030359  0.04630336  0.92050222    -0.05450
C105        C  0.16800512  0.98717803  0.91408958     0.93720
O106        O  0.16609345  0.93175335  0.04712442    -0.81690
C107        C  0.16761043  0.92811078  0.08953369     0.93780
O108        O  0.04631416  0.16489708  0.93133210    -0.81670
Mg109      Mg  0.93542931  0.08295624  0.05432946     1.58180
O110        O  0.16361588  0.97294027  0.95455248    -0.80010
O111        O  0.93219842  0.04642084  0.16553927    -0.81700
C112        C  0.15691236  0.26994555  0.89910098     0.04190
C113        C  0.14390150  0.22423662  0.90128677    -0.11960
C114        C  0.11038689  0.21076143  0.93134650     0.01690
C115        C  0.09207103  0.24274828  0.96187707    -0.10490
C116        C  0.10583537  0.28846683  0.96141273     0.04180
C117        C  0.13817383  0.30226085  0.92909045    -0.09910
H118        H  0.15689237  0.19997231  0.87677689     0.09770
H119        H  0.06488851  0.23256858  0.98448003     0.07300
H120        H  0.14645210  0.33796087  0.92539817     0.07150
C121        C  0.96296599  0.10544741  0.28925784     0.04190
C122        C  0.93029488  0.13750631  0.30321578    -0.11960
C123        C  0.90000054  0.15637613  0.27097518     0.01690
C124        C  0.90219520  0.14372515  0.22517362    -0.10490
C125        C  0.93254728  0.11044398  0.21150084     0.04180
C126        C  0.96339177  0.09202068  0.24342513    -0.09910
H127        H  0.92660816  0.14547277  0.33896961     0.09770
H128        H  0.87743680  0.15673884  0.20096608     0.07300
H129        H  0.98618073  0.06496711  0.23309668     0.07150
C130        C  0.29039958  0.96311508  0.10539110     0.04190
C131        C  0.30475428  0.93038367  0.13739444    -0.11960
C132        C  0.27279959  0.90017929  0.15643232     0.01690
C133        C  0.22685791  0.90258660  0.14417931    -0.10490
C134        C  0.21270949  0.93284234  0.11090760     0.04180
C135        C  0.24437933  0.96354269  0.09214043    -0.09910
H136        H  0.34059746  0.92652380  0.14513056     0.09770
H137        H  0.20288178  0.87789933  0.15736974     0.07300
H138        H  0.23368951  0.98619709  0.06501080     0.07150
O139        O  0.03878905  0.55500548  0.43851610    -0.87290
C140        C  0.93361388  0.63804819  0.45403560     0.88740
Mg141      Mg  0.03717506  0.50497055  0.38626104     1.58150
O142        O  0.93679460  0.55121247  0.53673852    -0.87020
O143        O  0.04208653  0.55347519  0.51336060    -0.74350
C144        C  0.82781881  0.42740784  0.39246356     0.93790
O145        O  0.96965680  0.59648153  0.36460567    -0.74160
O146        O  0.85998939  0.42100440  0.36418249    -0.81670
Mg147      Mg  0.02114728  0.62305158  0.41731762     1.57960
C148        C  0.82154325  0.47744529  0.56853250     0.93710
O149        O  0.07313992  0.65874708  0.46869070    -0.79930
H150        H  0.97142920  0.51795278  0.58508594    -0.05270
C151        C  0.85394513  0.53561400  0.43153527     0.88650
O152        O  0.01608597  0.44960489  0.43639562    -0.74440
O153        O  0.96944372  0.61953481  0.46627380    -0.87200
O154        O  0.83248884  0.51978789  0.57066679    -0.80010
C155        C  0.89478114  0.66500600  0.56238300     0.93830
C156        C  0.07162256  0.67036810  0.51077013     0.93680
Mg157      Mg  0.88919858  0.45488617  0.48444269     1.57950
O158        O  0.83565873  0.43816049  0.43336863    -0.79940
O159        O  0.93895287  0.47648271  0.54036219    -0.74180
O160        O  0.93567712  0.65752322  0.55146533    -0.80020
O161        O  0.07043891  0.62517342  0.35710432    -0.81730
O162        O  0.97093088  0.41847998  0.33114114    -0.80050
C163        C  0.94922826  0.51562936  0.55576519     0.88120
O164        O  0.94139419  0.45362465  0.43479351    -0.87190
O165        O  0.87222399  0.52313787  0.46745113    -0.87300
O166        O  0.86749512  0.52203330  0.39290842    -0.74350
Mg167      Mg  0.98673655  0.60358716  0.53471991     1.57970
O168        O  0.86657006  0.63249256  0.56864959    -0.81730
H169        H  0.08651869  0.52031867  0.47258515    -0.05450
O170        O  0.96881772  0.52205204  0.36981343    -0.87000
H171        H  0.93221437  0.55576147  0.32330573    -0.05280
H172        H  0.97483754  0.40548911  0.46946877    -0.05450
C173        C  0.95628146  0.55766691  0.35115508     0.88100
C174        C  0.05747535  0.54274755  0.47442500     0.88680
C175        C  0.97702007  0.43454986  0.44708644     0.88730
H176        H  0.82629136  0.55977006  0.43301023    -0.05430
O177        O  0.89501125  0.62470138  0.46788082    -0.74460
Mg178      Mg  0.91993197  0.47045768  0.36652110     1.58000
H179        H  0.93512151  0.66578806  0.42997623    -0.05450
C180        C  0.06435080  0.59678626  0.32468691     0.93720
O181        O  0.03952498  0.45095598  0.33349111    -0.81690
C182        C  0.01295431  0.41998273  0.31959741     0.93780
O183        O  0.04066639  0.65648784  0.53710882    -0.81670
Mg184      Mg  0.86851806  0.57197098  0.51923835     1.58180
O185        O  0.05369775  0.55580162  0.33225143    -0.80010
O186        O  0.83628203  0.45153370  0.53760539    -0.81700
C187        C  0.70206107  0.45558532  0.38897947     0.04190
C188        C  0.74879439  0.45769302  0.39884860    -0.11960
C189        C  0.77986492  0.42756355  0.37804047     0.01690
C190        C  0.76431240  0.39679945  0.34582453    -0.10490
C191        C  0.71785597  0.39311170  0.33666587     0.04180
C192        C  0.68656816  0.42205663  0.35827847    -0.09910
H193        H  0.76060632  0.48109069  0.42484489     0.09770
H194        H  0.78809723  0.37337267  0.33023269     0.07300
H195        H  0.65041795  0.41691700  0.35320327     0.07150
C196        C  0.03274757  0.60377829  0.19934433     0.04190
C197        C  0.06544289  0.63517676  0.18397272    -0.11960
C198        C  0.09632047  0.65478409  0.21517953     0.01690
C199        C  0.09450767  0.64381082  0.26137133    -0.10490
C200        C  0.06406212  0.61137677  0.27672166     0.04180
C201        C  0.03307188  0.59155312  0.24562911    -0.09910
H202        H  0.06839173  0.64238889  0.14799028     0.09770
H203        H  0.11879272  0.65856694  0.28504974     0.07300
H204        H  0.00963017  0.56564051  0.25724953     0.07150
C205        C  0.88732412  0.79048335  0.53157476     0.04190
C206        C  0.85616291  0.80573241  0.56453711    -0.11960
C207        C  0.83681381  0.77439515  0.59523793     0.01690
C208        C  0.84785995  0.72823028  0.59300681    -0.10490
C209        C  0.88007122  0.71298139  0.56237505     0.04180
C210        C  0.89958556  0.74417876  0.53154836    -0.09910
H211        H  0.84890792  0.84169424  0.56778917     0.09770
H212        H  0.83332588  0.70446447  0.61712601     0.07300
H213        H  0.92532115  0.73261927  0.50796470     0.07150
O214        O  0.00086900  0.87562550  0.43199703    -0.87290
C215        C  0.95561161  0.00737598  0.43023411     0.88740
Mg216      Mg  0.02579630  0.84995594  0.49352032     1.58150
O217        O  0.05976014  0.99071222  0.37598669    -0.87020
O218        O  0.02289427  0.89268709  0.36302566    -0.74350
C219        C  0.16961826  0.00414146  0.57655459     0.93790
O220        O  0.94964342  0.93168440  0.51048226    -0.74160
O221        O  0.14893606  0.96862981  0.59049342    -0.81670
Mg222      Mg  0.93613192  0.90703499  0.43669281     1.57960
C223        C  0.16758963  0.06373703  0.40089021     0.93710
O224        O  0.92547534  0.87862167  0.36123590    -0.79930
H225        H  0.09874270  0.95769542  0.33126558    -0.05270
C226        C  0.06192003  0.03704420  0.50695940     0.88650
O227        O  0.09914814  0.86346425  0.46849126    -0.74440
O228        O  0.96844367  0.97049676  0.41429729    -0.87200
O229        O  0.13031431  0.06620072  0.37851018    -0.80010
C230        C  0.98800168  0.07673456  0.32245332     0.93830
C231        C  0.92832032  0.90120698  0.32419048     0.93680
Mg232      Mg  0.14272495  0.99372384  0.46615379     1.57950
O233        O  0.16497331  0.01835024  0.53606309    -0.79940
O234        O  0.12911255  0.96903371  0.39246175    -0.74180
O235        O  0.97349212  0.03640037  0.32737041    -0.80020
O236        O  0.90133801  0.84277248  0.46908300    -0.81970
O237        O  0.11408362  0.86299107  0.56568197    -0.80050
C238        C  0.09574844  0.97211203  0.36492854     0.88120
O239        O  0.11609222  0.93263908  0.49041479    -0.87190
O240        O  0.07784610  0.02378023  0.47030883    -0.87300
O241        O  0.06062573  0.01138294  0.54194298    -0.74350
Mg242      Mg  0.99831135  0.96640149  0.34945611     1.57970
O243        O  0.02394372  0.09052085  0.34280343    -0.81730
H244        H  0.03412934  0.83128459  0.39272395    -0.05450
O245        O  0.02161553  0.91521532  0.52270940    -0.87000
H246        H  0.98270226  0.94448048  0.57009222    -0.05280
H247        H  0.16027495  0.89337572  0.45696813    -0.05450
C248        C  0.98487868  0.93090446  0.53602061     0.88100
C249        C  0.01964254  0.86489873  0.39601594     0.88680
C250        C  0.12680148  0.89659725  0.47160395     0.88730
H251        H  0.04847265  0.07116814  0.50923990    -0.05430
O252        O  0.98146284  0.04228300  0.43123036    -0.74460
Mg253      Mg  0.08501374  0.93755669  0.55520050     1.58000
H254        H  0.92165404  0.00998228  0.44383910    -0.05450
C255        C  0.91573843  0.82283441  0.50512182     0.93720
O256        O  0.04904044  0.82729576  0.55995152    -0.81690
C257        C  0.09148993  0.82606034  0.56315402     0.93780
O258        O  0.93213284  0.94362569  0.32538059    -0.81670
Mg259      Mg  0.05531129  0.05568497  0.40694969     1.58180
O260        O  0.95636894  0.82780031  0.51888892    -0.80010
O261        O  0.16694295  0.05975267  0.44331177    -0.81700
C262        C  0.10418162  0.70311960  0.53086362     0.04190
C263        C  0.13565355  0.68885620  0.56429051    -0.11960
C264        C  0.15680095  0.72108096  0.59285608     0.01690
C265        C  0.14602700  0.76722571  0.58906692    -0.10490
C266        C  0.11288654  0.78125535  0.55841211     0.04180
C267        C  0.09331329  0.74945350  0.52818822    -0.09910
H268        H  0.14140115  0.65289384  0.56992096     0.09770
H269        H  0.16003006  0.79151781  0.61313874     0.07300
H270        H  0.06614253  0.76012959  0.50549073     0.07150
C271        C  0.27151871  0.09187776  0.33290835     0.04190
C272        C  0.22582507  0.08980073  0.34577325    -0.11960
C273        C  0.21224508  0.05942354  0.37908389     0.01690
C274        C  0.24411163  0.02852728  0.39735109    -0.10490
C275        C  0.28981453  0.02893321  0.38380614     0.04180
C276        C  0.30370685  0.06153880  0.35167277    -0.09910
H277        H  0.20168126  0.11459726  0.33284316     0.09770
H278        H  0.23387724  0.00573148  0.42442808     0.07300
H279        H  0.33940733  0.06516074  0.34358139     0.07150
C280        C  0.90023158  0.83363607  0.21952057     0.04190
C281        C  0.93046533  0.85252103  0.18748970    -0.11960
C282        C  0.96318187  0.88469175  0.20165466     0.01690
C283        C  0.96351670  0.89825316  0.24752212    -0.10490
C284        C  0.93280942  0.87970224  0.27923954     0.04180
C285        C  0.90256190  0.84632135  0.26531379    -0.09910
H286        H  0.92671925  0.84444253  0.15172828     0.09770
H287        H  0.98618420  0.92542585  0.25804629     0.07300
H288        H  0.87794117  0.83322140  0.28933896     0.07150
O289        O  0.50102774  0.37527599  0.93258297    -0.87290
C290        C  0.45600837  0.50691700  0.93069409     0.88740
Mg291      Mg  0.52555738  0.34872510  0.99367040     1.58150
O292        O  0.55973546  0.49002453  0.87545511    -0.87020
O293        O  0.52286032  0.39191945  0.86347612    -0.74350
C294        C  0.66989483  0.50313713  0.07660310     0.93790
O295        O  0.45011378  0.43139311  0.01128809    -0.74160
O296        O  0.64972218  0.46722671  0.09042208    -0.81670
Mg297      Mg  0.43644036  0.40698617  0.93751559     1.57960
C298        C  0.66764125  0.56258966  0.90057589     0.93710
O299        O  0.42548358  0.37784129  0.86311979    -0.79930
H300        H  0.59872633  0.45655931  0.83107196    -0.05270
C301        C  0.56213091  0.53573522  0.00695188     0.88650
O302        O  0.59911468  0.36194829  0.96888541    -0.74440
O303        O  0.46915369  0.47002027  0.91512523    -0.87200
O304        O  0.63037448  0.56534744  0.87814446    -0.80010
C305        C  0.48649245  0.57546811  0.82256090     0.93830
C306        C  0.42799930  0.40037961  0.82619683     0.93680
Mg307      Mg  0.64268789  0.49246245  0.96608456     1.57950
O308        O  0.66493189  0.51740069  0.03614087    -0.79940
O309        O  0.62885540  0.46777568  0.89240843    -0.74180
O310        O  0.47269518  0.53496008  0.82766614    -0.80020
O311        O  0.40112534  0.34340169  0.96858646    -0.81730
O312        O  0.61374272  0.36038834  0.06574325    -0.80050
C313        C  0.59565886  0.47109893  0.86467494     0.88120
O314        O  0.61606673  0.43120704  0.99048347    -0.87190
O315        O  0.57794617  0.52277180  0.97012264    -0.87300
O316        O  0.56117216  0.50989996  0.04186989    -0.74350
Mg317      Mg  0.49799019  0.46546170  0.84989219     1.57970
O318        O  0.52267520  0.58970080  0.84235107    -0.81730
H319        H  0.53416239  0.33069063  0.89348002    -0.05450
O320        O  0.52180742  0.41374187  0.02352909    -0.87000
H321        H  0.48328985  0.44340941  0.07098526    -0.05280
H322        H  0.66029354  0.39176202  0.95730312    -0.05450
C323        C  0.48528832  0.42991544  0.03686911     0.88100
C324        C  0.51968271  0.36432385  0.89661293     0.88680
C325        C  0.62678792  0.39508599  0.97184320     0.88730
H326        H  0.54858272  0.56979990  0.00949839    -0.05430
O327        O  0.48160029  0.54197455  0.93132852    -0.74460
Mg328      Mg  0.58541442  0.43587176  0.05541659     1.58000
H329        H  0.42203606  0.50939346  0.94428534    -0.05450
C330        C  0.41517512  0.32260918  0.00411074     0.93720
O331        O  0.54864660  0.32460079  0.05968841    -0.81690
C332        C  0.59109196  0.32336095  0.06315314     0.93780
O333        O  0.43131690  0.44280664  0.82741832    -0.81670
Mg334      Mg  0.55522519  0.55496074  0.90662643     1.58180
O335        O  0.45572867  0.32696790  0.01838844    -0.80010
O336        O  0.66694259  0.55841901  0.94299196    -0.81700
C337        C  0.39839072  0.33434682  0.72160197     0.04190
C338        C  0.40231104  0.34541737  0.76767074    -0.11960
C339        C  0.43260008  0.37887371  0.78146745     0.01690
C340        C  0.46238167  0.39843496  0.74954814    -0.10490
C341        C  0.45954791  0.38723746  0.70330323     0.04180
C342        C  0.42647149  0.35545635  0.68923465    -0.09910
H343        H  0.37858490  0.33137241  0.79205868     0.09770
H344        H  0.48483850  0.42580239  0.76003874     0.07300
H345        H  0.42070121  0.34943989  0.65331216     0.07150
C346        C  0.60698031  0.20086258  0.02744504     0.04190
C347        C  0.59362412  0.24678486  0.02736427    -0.11960
C348        C  0.61248448  0.27839191  0.05828202     0.01690
C349        C  0.64596087  0.26427701  0.08845527    -0.10490
C350        C  0.65841044  0.21840418  0.09046833     0.04180
C351        C  0.63924982  0.18652032  0.06002222    -0.09910
H352        H  0.56635383  0.25742819  0.00477880     0.09770
H353        H  0.65925309  0.28818729  0.11330188     0.07300
H354        H  0.64712443  0.15070546  0.06356850     0.07150
C355        C  0.79016611  0.52836956  0.88376109     0.04190
C356        C  0.74438713  0.52769344  0.89709912    -0.11960
C357        C  0.71241092  0.55853943  0.87887158     0.01690
C358        C  0.72596424  0.58918517  0.84579515    -0.10490
C359        C  0.77169030  0.59163890  0.83310591     0.04180
C360        C  0.80400480  0.56134640  0.85188552    -0.09910
H361        H  0.73414311  0.50468634  0.92399101     0.09770
H362        H  0.70171060  0.61389312  0.83289862     0.07300
H363        H  0.83970902  0.56519569  0.84392735     0.07150
O364        O  0.93300546  0.48993444  0.11391980    -0.87290
C365        C  0.93120868  0.53549190  0.98237158     0.88740
Mg366      Mg  0.99452860  0.46520649  0.13980611     1.58150
O367        O  0.87676985  0.43123788  0.99881087    -0.87020
O368        O  0.86384718  0.46795578  0.09678379    -0.74350
C369        C  0.07725214  0.32175504  0.98602940     0.93790
O370        O  0.01154910  0.54151000  0.05827427    -0.74160
O371        O  0.09129236  0.34251671  0.02158317    -0.81670
Mg372      Mg  0.93787851  0.55481312  0.08268680     1.57960
C373        C  0.90153847  0.32317393  0.92635115     0.93710
O374        O  0.86275200  0.56552060  0.11097342    -0.79930
H375        H  0.83227519  0.39202076  0.03189205    -0.05270
C376        C  0.00773692  0.42933120  0.95288992     0.88650
O377        O  0.96946758  0.39172023  0.12622977    -0.74440
O378        O  0.91525048  0.52262434  0.01916864    -0.87200
O379        O  0.87906184  0.36029955  0.92364433    -0.80010
C380        C  0.82338034  0.50323221  0.91252750     0.93830
C381        C  0.82553657  0.56290781  0.08845930     0.93680
Mg382      Mg  0.96695941  0.34838486  0.99605849     1.57950
O383        O  0.03676469  0.32629426  0.97162404    -0.79940
O384        O  0.89337902  0.36194915  0.02056761    -0.74180
O385        O  0.82840952  0.51764494  0.95292976    -0.80020
O386        O  0.97021510  0.58952887  0.14699411    -0.81730
O387        O  0.06673880  0.37730172  0.12704507    -0.80050
C388        C  0.86584414  0.39518954  0.01746427     0.88120
O389        O  0.99140958  0.37493493  0.05719782    -0.87190
O390        O  0.97108704  0.41333043  0.96608443    -0.87300
O391        O  0.04281612  0.43067511  0.97861754    -0.74350
Mg392      Mg  0.85034656  0.49265424  0.02306074     1.57970
O393        O  0.84344085  0.46720234  0.89883278    -0.81730
H394        H  0.89375719  0.45665780  0.15820887    -0.05450
O395        O  0.02367988  0.46955147  0.07469046    -0.87000
H396        H  0.07104991  0.50868339  0.04562420    -0.05280
H397        H  0.95803575  0.33049638  0.09625280    -0.05450
C398        C  0.03701675  0.50636333  0.05909146     0.88100
C399        C  0.89697714  0.47116246  0.12460821     0.88680
C400        C  0.97263015  0.36407922  0.09312632     0.88730
H401        H  0.00994089  0.44277974  0.91877166    -0.05430
O402        O  0.93213713  0.50962390  0.94747456    -0.74460
Mg403      Mg  0.05615891  0.40632608  0.05248804     1.58000
H404        H  0.94490326  0.56949750  0.97983461    -0.05450
C405        C  0.00620500  0.57522072  0.16705617     0.93720
O406        O  0.06099606  0.44236464  0.16262003    -0.81690
C407        C  0.06419505  0.39993251  0.16392523     0.93780
O408        O  0.82633412  0.55877745  0.04604004    -0.81670
Mg409      Mg  0.90762860  0.43567858  0.93397475     1.58180
O410        O  0.01992769  0.53466250  0.16211317    -0.80010
O411        O  0.94397746  0.32421886  0.92999991    -0.81700
C412        C  0.72154137  0.59123077  0.15644289     0.04190
C413        C  0.68928114  0.56093388  0.13757201    -0.11960
C414        C  0.70311344  0.52831643  0.10532260     0.01690
C415        C  0.74881880  0.52796250  0.09174882    -0.10490
C416        C  0.78074878  0.55876751  0.11010614     0.04180
C417        C  0.76721647  0.58909604  0.14349888    -0.09910
H418        H  0.65360524  0.56451285  0.14577401     0.09770
H419        H  0.75904708  0.50517320  0.06466251     0.07300
H420        H  0.79143546  0.61376661  0.15653098     0.07150
C421        C  0.03265319  0.38741108  0.28687675     0.04190
C422        C  0.06602073  0.35600939  0.30114684    -0.11960
C423        C  0.09422896  0.33484477  0.26891456     0.01690
C424        C  0.09013841  0.34547785  0.22276187    -0.10490
C425        C  0.05957395  0.37858078  0.20872806     0.04180
C426        C  0.02967367  0.39819067  0.24053192    -0.09910
H427        H  0.07190154  0.35034489  0.33710834     0.09770
H428        H  0.11396726  0.33144324  0.19846460     0.07300
H429        H  0.00703607  0.42533324  0.22984736     0.07150
C430        C  0.83374138  0.21853079  0.89895699     0.04190
C431        C  0.85264258  0.18659183  0.92950028    -0.11960
C432        C  0.88489515  0.20081212  0.96214443     0.01690
C433        C  0.89849660  0.24666005  0.96219854    -0.10490
C434        C  0.87991350  0.27831467  0.93117279     0.04180
C435        C  0.84645323  0.26433405  0.90091656    -0.09910
H436        H  0.84458253  0.15081493  0.92598551     0.09770
H437        H  0.92575912  0.25719046  0.98484817     0.07300
H438        H  0.83335784  0.28827527  0.87599931     0.07150
O439        O  0.49131201  0.11428811  0.93089469    -0.87290
C440        C  0.53650834  0.98265719  0.92983957     0.88740
Mg441      Mg  0.46751089  0.14121452  0.99216202     1.58150
O442        O  0.43192356  0.99947661  0.87539058    -0.87020
O443        O  0.46894064  0.09725034  0.86180530    -0.74350
C444        C  0.32340695  0.98799512  0.07652476     0.93790
O445        O  0.54320690  0.05894662  0.00972856    -0.74160
O446        O  0.34431197  0.02359388  0.09031588    -0.81670
Mg447      Mg  0.55612058  0.08285446  0.93567028     1.57960
C448        C  0.32394217  0.92772107  0.90144827     0.93710
O449        O  0.56636026  0.11085359  0.86032793    -0.79930
H450        H  0.39246648  0.03284172  0.83091151    -0.05270
C451        C  0.43081438  0.95447835  0.00714730     0.88650
O452        O  0.39360251  0.12804792  0.96780010    -0.74440
O453        O  0.52352523  0.01944105  0.91368769    -0.87200
O454        O  0.36078679  0.92465807  0.87879118    -0.80010
C455        C  0.50324958  0.91279865  0.82228782     0.93830
C456        C  0.56355552  0.08822969  0.82331820     0.93680
Mg457      Mg  0.34985269  0.99782358  0.96613965     1.57950
O458        O  0.32782735  0.97353719  0.03613928    -0.79940
O459        O  0.36307212  0.02199510  0.89232657    -0.74180
O460        O  0.51767054  0.95322062  0.82689508    -0.80020
O461        O  0.59161461  0.14707932  0.96673061    -0.81730
O462        O  0.38044073  0.12976624  0.06538241    -0.80050
C463        C  0.39591714  0.01845249  0.86457663     0.88120
O464        O  0.37673063  0.05909642  0.99018068    -0.87190
O465        O  0.41469647  0.96748676  0.97030617    -0.87300
O466        O  0.43226651  0.98037596  0.04198827    -0.74350
Mg467      Mg  0.49320324  0.02339443  0.84870784     1.57970
O468        O  0.46749961  0.89915852  0.84281068    -0.81730
H469        H  0.45801646  0.15871740  0.89137783    -0.05450
O470        O  0.47164186  0.07636812  0.02248760    -0.87000
H471        H  0.51116367  0.04690641  0.06968071    -0.05280
H472        H  0.33208456  0.09842113  0.95692917    -0.05450
C473        C  0.50847135  0.06031841  0.03555520     0.88100
C474        C  0.47240000  0.12505527  0.89479481     0.88680
C475        C  0.36582823  0.09509198  0.97129620     0.88730
H476        H  0.44421035  0.92034735  0.00975996    -0.05430
O477        O  0.51058245  0.94784209  0.93115191    -0.74460
Mg478      Mg  0.40841034  0.05447940  0.05501157     1.58000
H479        H  0.57064544  0.98007254  0.94338541    -0.05450
C480        C  0.57798525  0.16783223  0.00236031     0.93720
O481        O  0.44535990  0.16560142  0.05826066    -0.81690
C482        C  0.40301822  0.16676339  0.06258112     0.93780
O483        O  0.55925887  0.04584762  0.82449520    -0.81670
Mg484      Mg  0.43642672  0.93477280  0.90696256     1.58180
O485        O  0.53763245  0.16327086  0.01667478    -0.80010
O486        O  0.32547179  0.93173644  0.94382600    -0.81700
C487        C  0.59213832  0.15560580  0.71886789     0.04190
C488        C  0.58987698  0.14296757  0.76468074    -0.11960
C489        C  0.55946499  0.10971380  0.77832764     0.01690
C490        C  0.52871649  0.09124859  0.74634520    -0.10490
C491        C  0.52925731  0.10460775  0.70050833     0.04180
C492        C  0.56191057  0.13669133  0.68658746    -0.09910
H493        H  0.61456073  0.15603559  0.78893335     0.09770
H494        H  0.50585532  0.06425051  0.75665440     0.07300
H495        H  0.56561925  0.14466663  0.65083919     0.07150
C496        C  0.33576981  0.27118232  0.09147911     0.04190
C497        C  0.34835600  0.22536453  0.08900763    -0.11960
C498        C  0.38148685  0.21170006  0.05860131     0.01690
C499        C  0.39982029  0.24363970  0.02803270    -0.10490
C500        C  0.38649464  0.28948018  0.02881596     0.04180
C501        C  0.35456166  0.30344203  0.06147033    -0.09910
H502        H  0.33538023  0.20113413  0.11355386     0.09770
H503        H  0.42673660  0.23331196  0.00517687     0.07300
H504        H  0.34663989  0.33920164  0.06537431     0.07150
C505        C  0.21887016  0.89923453  0.83451101     0.04190
C506        C  0.18682632  0.92942066  0.85341956    -0.11960
C507        C  0.20106821  0.96223271  0.88538011     0.01690
C508        C  0.24705399  0.96280567  0.89869888    -0.10490
C509        C  0.27881724  0.93212740  0.88007304     0.04180
C510        C  0.26478441  0.90172621  0.84687303    -0.09910
H511        H  0.15100766  0.92551463  0.84559041     0.09770
H512        H  0.25765218  0.98559670  0.92575332     0.07300
H513        H  0.28883703  0.87706867  0.83376314     0.07150
O514        O  0.55023025  0.45312015  0.55502925    -0.87290
C515        C  0.53543630  0.55731465  0.63852375     0.88740
Mg516      Mg  0.60238011  0.45433240  0.50532854     1.58150
O517        O  0.45265191  0.55447395  0.55139909    -0.87020
O518        O  0.47552413  0.44910651  0.55360121    -0.74350
C519        C  0.59632077  0.66411247  0.42715083     0.93790
O520        O  0.62413677  0.52174851  0.59670771    -0.74160
O521        O  0.62448305  0.63159833  0.42073761    -0.81670
Mg522      Mg  0.57180880  0.47015846  0.62321656     1.57960
C523        C  0.41977988  0.66978581  0.47907564     0.93710
O524        O  0.52101197  0.41818945  0.65870682    -0.79930
H525        H  0.40479979  0.51972922  0.51755958    -0.05270
C526        C  0.55774466  0.63747257  0.53551515     0.88650
O527        O  0.55249846  0.47567265  0.44942289    -0.74440
O528        O  0.52288710  0.52168660  0.61990479    -0.87200
O529        O  0.41834672  0.65827060  0.52118249    -0.80010
C530        C  0.42753441  0.59648478  0.66519603     0.93830
C531        C  0.47904426  0.41970078  0.67040415     0.93680
Mg532      Mg  0.50446614  0.60276403  0.45501053     1.57950
O533        O  0.55544833  0.65665026  0.43813566    -0.79940
O534        O  0.44915553  0.55271523  0.47657066    -0.74180
O535        O  0.43816583  0.55547718  0.65770798    -0.80020
O536        O  0.63174371  0.42077732  0.62557190    -0.81730
O537        O  0.65877236  0.51920061  0.41897187    -0.80050
C538        C  0.43385479  0.54212800  0.51557670     0.88120
O539        O  0.55444451  0.55040485  0.45300678    -0.87190
O540        O  0.52192165  0.61888432  0.52338540    -0.87300
O541        O  0.59633151  0.62414080  0.52162627    -0.74350
Mg542      Mg  0.45450779  0.50453795  0.60372038     1.57970
O543        O  0.42125694  0.62476813  0.63272974    -0.81730
H544        H  0.51669960  0.40495783  0.52046852    -0.05450
O545        O  0.61921447  0.52264351  0.52218637    -0.87000
H546        H  0.66519733  0.55941892  0.55640850    -0.05280
H547        H  0.51981115  0.51701892  0.40473885    -0.05450
C548        C  0.63757527  0.53523791  0.55801735     0.88100
C549        C  0.51457010  0.43404151  0.54283100     0.88680
C550        C  0.54206893  0.51477750  0.43402275     0.88730
H551        H  0.55624618  0.66526548  0.55951812    -0.05430
O552        O  0.52200373  0.59610482  0.62507930    -0.74460
Mg553      Mg  0.62273345  0.57133046  0.47032189     1.58000
H554        H  0.55955755  0.55544242  0.66632833    -0.05450
C555        C  0.66388627  0.42726935  0.59729038     0.93720
O556        O  0.65530109  0.45099818  0.45215471    -0.81690
C557        C  0.66991617  0.47692656  0.42118574     0.93780
O558        O  0.45240051  0.45063933  0.65658200    -0.81670
Mg559      Mg  0.47038617  0.62255106  0.57244633     1.58180
O560        O  0.65601527  0.43790289  0.55636660    -0.80010
O561        O  0.45057927  0.65569877  0.45266236    -0.81700
C562        C  0.65469362  0.77343489  0.39501885     0.04190
C563        C  0.64344574  0.72731779  0.39694319    -0.11960
C564        C  0.61112326  0.71203217  0.42741594     0.01690
C565        C  0.59169691  0.74310288  0.45842331    -0.10490
C566        C  0.60414636  0.78934797  0.45871921     0.04180
C567        C  0.63542142  0.80467343  0.42588735    -0.09910
H568        H  0.65793809  0.70362475  0.37272134     0.09770
H569        H  0.56588412  0.73149993  0.48189858     0.07300
H570        H  0.64283187  0.84062259  0.42287104     0.07150
C571        C  0.39579373  0.65455451  0.77467708     0.04190
C572        C  0.42692116  0.63518504  0.80580367    -0.11960
C573        C  0.45979259  0.60398589  0.79034605     0.01690
C574        C  0.45934254  0.59168933  0.74407482    -0.10490
C575        C  0.42807034  0.61124391  0.71309673     0.04180
C576        C  0.39750545  0.64352107  0.72850559    -0.09910
H577        H  0.42403252  0.64240192  0.84179076     0.09770
H578        H  0.48285939  0.56587120  0.73239122     0.07300
H579        H  0.37302477  0.65806620  0.70489652     0.07150
C580        C  0.78951254  0.45595176  0.60077914     0.04190
C581        C  0.80513924  0.42229154  0.63129545    -0.11960
C582        C  0.77395305  0.39316387  0.65283406     0.01690
C583        C  0.72748527  0.39680196  0.64378543    -0.10490
C584        C  0.71181577  0.42764681  0.61172685     0.04180
C585        C  0.74275402  0.45797075  0.59100825    -0.09910
H586        H  0.84130879  0.41719350  0.63626460     0.09770
H587        H  0.70377883  0.37324020  0.65929268     0.07300
H588        H  0.73082557  0.48141601  0.56511132     0.07150
O589        O  0.43210611  0.99024906  0.61359134    -0.87290
C590        C  0.43075901  0.03639278  0.48251997     0.88740
Mg591      Mg  0.49312913  0.96553005  0.64065525     1.58150
O592        O  0.37577912  0.93237738  0.49904806    -0.87020
O593        O  0.36265679  0.96907588  0.59685187    -0.74350
C594        C  0.57575749  0.82163032  0.48529295     0.93790
O595        O  0.51108296  0.04110253  0.55864483    -0.74160
O596        O  0.59006982  0.84125985  0.52154078    -0.81670
Mg597      Mg  0.43724056  0.05513183  0.58248853     1.57960
C598        C  0.40033952  0.82557429  0.42667429     0.93710
O599        O  0.36229475  0.06626499  0.61064520    -0.79930
H600        H  0.33130799  0.89339060  0.53243077    -0.05270
C601        C  0.50728930  0.92993629  0.45426519     0.88650
O602        O  0.46816257  0.89195845  0.62700772    -0.74440
O603        O  0.41471295  0.02321391  0.51914019    -0.87200
O604        O  0.37783063  0.86254511  0.42399605    -0.80010
C605        C  0.32302688  0.00406570  0.41260906     0.93830
C606        C  0.32509120  0.06399836  0.58814636     0.93680
Mg607      Mg  0.46576097  0.84923780  0.49650176     1.57950
O608        O  0.53520637  0.82684998  0.47138970    -0.79940
O609        O  0.39234430  0.86316928  0.52119390    -0.74180
O610        O  0.32777101  0.01846217  0.45302745    -0.80020
O611        O  0.46857565  0.08999889  0.64657869    -0.81730
O612        O  0.56555625  0.87727085  0.62948328    -0.80050
C613        C  0.36484889  0.89642750  0.51791016     0.88120
O614        O  0.49051081  0.87470738  0.55818867    -0.87190
O615        O  0.47037551  0.91445880  0.46734093    -0.87300
O616        O  0.54240140  0.93043203  0.47999302    -0.74350
Mg617      Mg  0.34955113  0.99375163  0.52308059     1.57970
O618        O  0.34346958  0.96832483  0.39886165    -0.81730
H619        H  0.39267262  0.95762305  0.65819446    -0.05450
O620        O  0.52353814  0.96932965  0.57605670    -0.87000
H621        H  0.57076963  0.00835600  0.54662676    -0.05280
H622        H  0.45674715  0.83059726  0.59728204    -0.05450
C623        C  0.53670935  0.00604537  0.56002856     0.88100
C624        C  0.39592338  0.97195421  0.62452247     0.88680
C625        C  0.47145457  0.86412111  0.59405903     0.88730
H626        H  0.50974354  0.94354399  0.42022897    -0.05430
O627        O  0.43194168  0.01072029  0.44754284    -0.74460
Mg628      Mg  0.55546834  0.90568075  0.55386098     1.58000
H629        H  0.44438455  0.07044573  0.48025611    -0.05450
C630        C  0.50417360  0.07593419  0.66732305     0.93720
O631        O  0.55887801  0.94228642  0.66538851    -0.81690
C632        C  0.56262295  0.89985610  0.66654441     0.93780
O633        O  0.32587094  0.06007387  0.54572203    -0.81670
Mg634      Mg  0.40719657  0.93700332  0.43442387     1.58180
O635        O  0.51824196  0.03539332  0.66281307    -0.80010
O636        O  0.44277874  0.82674993  0.42993979    -0.81700
C637        C  0.38732642  0.70266023  0.45903312     0.04190
C638        C  0.39837118  0.74896139  0.46167886    -0.11960
C639        C  0.37884623  0.78082394  0.43148487     0.01690
C640        C  0.34561089  0.76689402  0.40089871    -0.10490
C641        C  0.33471261  0.72078467  0.39711243     0.04180
C642        C  0.35577409  0.68849556  0.42564925    -0.09910
H643        H  0.42561874  0.75954893  0.48432553     0.09770
H644        H  0.33164950  0.79122417  0.37684282     0.07300
H645        H  0.34991244  0.65255140  0.42001340     0.07150
C646        C  0.20291798  0.02896411  0.60526862     0.04190
C647        C  0.24851658  0.02887680  0.59139445    -0.11960
C648        C  0.28041013  0.05960875  0.60986694     0.01690
C649        C  0.26695491  0.08954184  0.64363198    -0.10490
C650        C  0.22133929  0.09132903  0.65680620     0.04180
C651        C  0.18913111  0.06110197  0.63790944    -0.09910
H652        H  0.25865859  0.00637752  0.56403276     0.09770
H653        H  0.29112578  0.11420760  0.65676287     0.07300
H654        H  0.15348009  0.06447358  0.64631493     0.07150
C655        C  0.52823097  0.88385775  0.78926576     0.04190
C656        C  0.56128253  0.85206229  0.80352196    -0.11960
C657        C  0.59147173  0.83309931  0.77148211     0.01690
C658        C  0.58878872  0.84535840  0.72558962    -0.10490
C659        C  0.55823513  0.87840885  0.71154317     0.04180
C660        C  0.52753795  0.89699106  0.74327193    -0.09910
H661        H  0.56531898  0.84436253  0.83933589     0.09770
H662        H  0.61341801  0.83228034  0.70155855     0.07300
H663        H  0.50466283  0.92395153  0.73264992     0.07150
C664        C  0.22260968  0.26450969  0.78288271     0.04190
C665        C  0.26105299  0.28577022  0.76504391    -0.11960
C666        C  0.28209229  0.26794957  0.72629199     0.01690
C667        C  0.26456843  0.22895377  0.70542185    -0.10490
C668        C  0.22596774  0.20760945  0.72330697     0.04180
C669        C  0.20498769  0.22539208  0.76195827    -0.09910
H670        H  0.27545376  0.31516300  0.78212938     0.09770
H671        H  0.28175692  0.21441302  0.67630813     0.07300
H672        H  0.17600140  0.20803478  0.77656918     0.07150
C673        C  0.20865188  0.12926954  0.68459501    -0.12220
C674        C  0.21115359  0.16518262  0.70406958    -0.13770
C675        C  0.32412462  0.28756645  0.71133822    -0.12220
C676        C  0.35994882  0.30711952  0.70891213    -0.13770
C677        C  0.20344126  0.27965271  0.82504536    -0.12220
C678        C  0.18428245  0.28250411  0.86096228    -0.13770
C679        C  0.20300066  0.71043326  0.66774843    -0.12220
C680        C  0.18374882  0.70820891  0.63158496    -0.13770
C681        C  0.20600344  0.86053737  0.80775536    -0.12220
C682        C  0.20896704  0.82425708  0.78908375    -0.13770
C683        C  0.32219996  0.70175886  0.78506298    -0.12220
C684        C  0.35790420  0.68195342  0.78831782    -0.13770
C685        C  0.66670484  0.20174321  0.70896974    -0.12220
C686        C  0.63052365  0.18278695  0.70622876    -0.13770
C687        C  0.78771813  0.20807814  0.82410502    -0.12220
C688        C  0.80659726  0.20551930  0.86044004    -0.13770
C689        C  0.78767887  0.35485236  0.67975551    -0.12220
C690        C  0.78458357  0.31927636  0.69973315    -0.13770
C691        C  0.68552164  0.20531125  0.12898650    -0.12220
C692        C  0.70437969  0.20789984  0.16533513    -0.13770
C693        C  0.82525066  0.20215223  0.28073319    -0.12220
C694        C  0.86152416  0.18340395  0.28363102    -0.13770
C695        C  0.70721805  0.31941416  0.28946276    -0.12220
C696        C  0.70419145  0.35493559  0.30953534    -0.13770
C697        C  0.30877645  0.28384708  0.12986039    -0.12220
C698        C  0.28976929  0.28105473  0.16586545    -0.13770
C699        C  0.28182046  0.16627403  0.28648499    -0.12220
C700        C  0.28426205  0.13018186  0.30563854    -0.13770
C701        C  0.13293865  0.30805165  0.28175907    -0.12220
C702        C  0.16890858  0.28874046  0.27941485    -0.13770
C703        C  0.71177957  0.66541312  0.20358556    -0.12220
C704        C  0.70903107  0.62942926  0.18413995    -0.13770
C705        C  0.86176473  0.80632533  0.20677845    -0.12220
C706        C  0.82569848  0.78717383  0.20978733    -0.13770
C707        C  0.70254286  0.78317791  0.32187689    -0.12220
C708        C  0.68241582  0.78679508  0.35727701    -0.13770
C709        C  0.28576971  0.86143638  0.18308020    -0.12220
C710        C  0.28279600  0.82505853  0.20156656    -0.13770
C711        C  0.16966756  0.70236328  0.20475854    -0.12220
C712        C  0.13405372  0.68240000  0.20156942    -0.13770
C713        C  0.30778981  0.70800801  0.35835780    -0.12220
C714        C  0.28863785  0.71044239  0.32216804    -0.13770
C715        C  0.80927795  0.78771829  0.63313230    -0.12220
C716        C  0.78931238  0.78416504  0.66862707    -0.13770
C717        C  0.78117680  0.66630637  0.78674922    -0.12220
C718        C  0.78413663  0.63016719  0.80586024    -0.13770
C719        C  0.63027164  0.80625561  0.78424569    -0.12220
C720        C  0.66651402  0.78743507  0.78117327    -0.13770
loop_ 
_geom_bond_atom_site_label_1 
_geom_bond_atom_site_label_2 
_geom_bond_distance 
_geom_bond_site_symmetry_2 
_ccdc_geom_bond_type 
C1            C2   1.399       .  A
C1            C6   1.404       .  A
C1          C720   1.439       .  S
C2            C3   1.403       .  A
C2            H7   1.085       .  S
C3            C4   1.399       .  A
C3          C717   1.440       .  S
C4            C5   1.404       .  A
C4            H8   1.085       .  S
C5            C6   1.399       .  A
C5          C716   1.440       .  S
C6            H9   1.085       .  S
C10          C11   1.397       .  A
C10          C15   1.403       .  A
C10         C710   1.437       .  S
C11          C12   1.402       .  A
C11          H16   1.085       .  S
C12          C13   1.399       .  A
C12         C714   1.437       .  S
C13          C14   1.404       .  A
C13          H17   1.085       .  S
C14          C15   1.399       .  A
C14         C711   1.438       .  S
C15          H18   1.085       .  S
C19          C20   1.399       .  A
C19          C24   1.404       .  A
C19         C707   1.440       .  S
C20          C21   1.404       .  A
C20          H25   1.085       .  S
C21          C22   1.399       .  A
C21         C706   1.439       .  S
C22          C23   1.403       .  A
C22          H26   1.085       .  S
C23          C24   1.400       .  A
C23         C703   1.440       .  S
C24          H27   1.085       .  S
C28          C29   1.398       .  A
C28          C33   1.402       .  A
C28         C702   1.436       .  S
C29          C30   1.403       .  A
C29          H34   1.085       .  S
C30          C31   1.398       .  A
C30         C699   1.437       .  S
C31          C32   1.403       .  A
C31          H35   1.085       .  S
C32          C33   1.397       .  A
C32         C698   1.436       .  S
C33          H36   1.085       .  S
C37          C38   1.398       .  A
C37          C42   1.403       .  A
C37         C692   1.438       .  S
C38          C39   1.403       .  A
C38          H43   1.085       .  S
C39          C40   1.398       .  A
C39         C693   1.437       .  S
C40          C41   1.403       .  A
C40          H44   1.085       .  S
C41          C42   1.399       .  A
C41         C695   1.437       .  S
C42          H45   1.085       .  S
C46          C47   1.403       .  A
C46          C51   1.399       .  A
C46         C690   1.437       .  S
C47          C48   1.398       .  A
C47          H52   1.085       .  S
C48          C49   1.403       .  A
C48         C685   1.437       .  S
C49          C50   1.398       .  A
C49          H53   1.085       .  S
C50          C51   1.403       .  A
C50         C687   1.438       .  S
C51          H54   1.085       .  S
C55          C56   1.399       .  A
C55          C60   1.402       .  A
C55         C679   1.437       .  S
C56          C57   1.404       .  A
C56          H61   1.085       .  S
C57          C58   1.399       .  A
C57         C683   1.438       .  S
C58          C59   1.403       .  A
C58          H62   1.085       .  S
C59          C60   1.397       .  A
C59         C682   1.437       .  S
C60          H63   1.085       .  S
O64         Mg66   2.089   1_545  S
O64         Mg72   2.122   1_554  S
O64          C99   1.237       .  S
C65         H104   1.081       .  S
C65          O78   1.241   1_655  S
C65         O102   1.277       .  A
Mg66         O95   2.109       .  S
Mg66        O110   2.276   1_554  S
Mg66        O106   2.172       .  S
Mg66         O77   2.320   1_565  S
O67        Mg109   2.123   1_455  S
O67         Mg92   2.092   1_554  S
O67          C88   1.237       .  S
O68          C99   1.272       .  A
O68         Mg92   2.318   1_554  S
C69          O71   1.280   1_655  A
C69          O83   1.269       .  A
C69         C282   1.488       .  S
O70          C98   1.277       .  A
O70         Mg72   2.322   1_565  S
O71        Mg103   2.347       .  S
Mg72         O78   2.193       .  S
Mg72         O86   2.340       .  S
Mg72         O74   2.381       .  S
C73         O111   1.253       .  A
C73          O79   1.278       .  A
C73         C125   1.471       .  S
O74          C81   1.278       .  A
H75          C88   1.081       .  S
C76         H101   1.081       .  S
C76          O90   1.241   1_565  S
C76          O91   1.278       .  A
O77         C100   1.273       .  A
O78         Mg92   2.109       .  S
O79        Mg109   2.385       .  S
C80          O93   1.279   1_556  A
C80          O85   1.269       .  A
C80         C432   1.486       .  S
C81         O108   1.253       .  A
C81         C114   1.470       .  S
Mg82         O89   2.091   1_645  S
Mg82         O90   2.108       .  S
Mg82         O83   2.279   1_545  S
Mg82         O84   2.320   1_655  S
Mg82        O111   2.175       .  S
O84          C88   1.273       .  A
O85         Mg92   2.275   1_655  S
O86         C105   1.279   1_545  A
O87         C107   1.279       .  A
O87        Mg103   2.389       .  S
O89        Mg103   2.121       .  S
O89         C100   1.237   1_565  S
O90        Mg109   2.194       .  S
O91        Mg103   2.324   1_655  S
Mg92        O108   2.176       .  S
O93        Mg109   2.342       .  S
H94          C99   1.081       .  S
O95        Mg103   2.194       .  S
O95          C98   1.241   1_554  S
H96          C98   1.081       .  S
H97         C100   1.081       .  S
O102       Mg109   2.322   1_556  S
C105        O110   1.269       .  A
C105        C507   1.486       .  S
O106        C107   1.253       .  A
C107        C134   1.472       .  S
C112        C113   1.399       .  A
C112        C117   1.411       .  A
C112        C678   1.433       .  S
C113        C114   1.386       .  A
C113        H118   1.085       .  S
C114        C115   1.410       .  A
C115        C116   1.404       .  A
C115        H119   1.085       .  S
C116        C117   1.409       .  A
C116        C369   1.482       .  S
C117        H120   1.084       .  S
C121        C122   1.409       .  A
C121        C126   1.405       .  A
C121        C230   1.484       .  S
C122        C123   1.411       .  A
C122        H127   1.084       .  S
C123        C124   1.400       .  A
C123        C694   1.434       .  S
C124        C125   1.386       .  A
C124        H128   1.085       .  S
C125        C126   1.410       .  A
C126        H129   1.085       .  S
C130        C131   1.410       .  A
C130        C135   1.407       .  A
C130        C444   1.486       .  S
C131        C132   1.412       .  A
C131        H136   1.084       .  S
C132        C133   1.399       .  A
C132        C709   1.434       .  S
C133        C134   1.385       .  A
C133        H137   1.086       .  S
C134        C135   1.412       .  A
C135        H138   1.085       .  S
O139       Mg141   2.128       .  S
O139       Mg147   2.159       .  S
O139        C174   1.242       .  S
C140        H179   1.081       .  S
C140        O153   1.238       .  S
C140        O177   1.271       .  A
Mg141       O170   2.126   1_455  S
Mg141       O185   2.237       .  S
Mg141       O181   2.222       .  S
Mg141       O152   2.285       .  S
O142       Mg184   2.159       .  S
O142       Mg167   2.130       .  S
O142        C163   1.241       .  S
O143        C174   1.274       .  A
O143       Mg167   2.287   1_455  S
C144        O146   1.278       .  A
C144        O158   1.264       .  A
C144        C189   1.471       .  S
O145        C173   1.270       .  A
O145       Mg147   2.299   1_655  S
O146       Mg178   2.287       .  S
Mg147       O153   2.103   1_455  S
Mg147       O161   2.296       .  S
Mg147       O149   2.387       .  S
C148        O186   1.265       .  A
C148        O154   1.288       .  A
C148        C580   1.482       .  S
O149        C156   1.285       .  A
H150        C163   1.081       .  S
C151        H176   1.081       .  S
C151        O165   1.238       .  S
C151        O166   1.271       .  A
O152        C175   1.273   1_455  A
O153       Mg167   2.126       .  S
O154       Mg184   2.406       .  S
C155        O168   1.280       .  A
C155        O160   1.266       .  A
C155        C209   1.476       .  S
C156        O183   1.267       .  A
C156        C262   1.479       .  S
Mg157       O164   2.126       .  S
Mg157       O165   2.128       .  S
Mg157       O158   2.226       .  S
Mg157       O159   2.286       .  S
Mg157       O186   2.215       .  S
O159        C163   1.273       .  A
O160       Mg167   2.241       .  S
O161        C180   1.279       .  A
O162        C182   1.285   1_655  A
O162       Mg178   2.385       .  S
O164       Mg178   2.159       .  S
O164        C175   1.241       .  S
O165       Mg184   2.097       .  S
O166       Mg178   2.302       .  S
Mg167       O183   2.223   1_655  S
O168       Mg184   2.299       .  S
H169        C174   1.081       .  S
O170       Mg178   2.093       .  S
O170        C173   1.238       .  S
H171        C173   1.081       .  S
H172        C175   1.081       .  S
O177       Mg184   2.304       .  S
C180        O185   1.266       .  A
C180        C200   1.475       .  S
O181        C182   1.267       .  A
C182        C421   1.479       .  S
C187        C188   1.405       .  A
C187        C192   1.411       .  A
C187        C557   1.482       .  S
C188        C189   1.415       .  A
C188        H193   1.084       .  S
C189        C190   1.386       .  A
C190        C191   1.396       .  A
C190        H194   1.086       .  S
C191        C192   1.408       .  A
C191        C696   1.434       .  S
C192        H195   1.084       .  S
C196        C197   1.410       .  A
C196        C201   1.408       .  A
C196        C405   1.486       .  S
C197        C198   1.411       .  A
C197        H202   1.083       .  S
C198        C199   1.398       .  A
C198        C712   1.434       .  S
C199        C200   1.386       .  A
C199        H203   1.086       .  S
C200        C201   1.414       .  A
C201        H204   1.085       .  S
C205        C206   1.411       .  A
C205        C210   1.409       .  A
C205        C255   1.489       .  S
C206        C207   1.413       .  A
C206        H211   1.083       .  S
C207        C208   1.398       .  A
C207        C715   1.436       .  S
C208        C209   1.386       .  A
C208        H212   1.086       .  S
C209        C210   1.414       .  A
C210        H213   1.084       .  S
O214       Mg216   2.090       .  S
O214       Mg222   2.122   1_455  S
O214        C249   1.238       .  S
C215        H254   1.081       .  S
C215        O228   1.241   1_545  S
C215        O252   1.278       .  A
Mg216       O245   2.107       .  S
Mg216       O260   2.274   1_455  S
Mg216       O256   2.172       .  S
Mg216       O227   2.319       .  S
O217       Mg259   2.121   1_565  S
O217       Mg242   2.091   1_455  S
O217        C238   1.237       .  S
O218        C249   1.273       .  A
O218       Mg242   2.320   1_455  S
C219        O221   1.278   1_545  A
C219        O233   1.269       .  A
C219        C646   1.482       .  S
O220        C248   1.277       .  A
O220       Mg222   2.321       .  S
O221       Mg253   2.330       .  S
Mg222       O228   2.198       .  S
Mg222       O236   2.354       .  S
Mg222       O224   2.391       .  S
C223        O261   1.254       .  A
C223        O229   1.278       .  A
C223        C273   1.471       .  S
O224        C231   1.279       .  A
H225        C238   1.081       .  S
C226        H251   1.081       .  S
C226        O240   1.241       .  S
C226        O241   1.277       .  A
O227        C250   1.273       .  A
O228       Mg242   2.108       .  S
O229       Mg259   2.385       .  S
C230        O243   1.278   1_655  A
C230        O235   1.269       .  A
C231        O258   1.253       .  A
C231        C284   1.472       .  S
Mg232       O239   2.088       .  S
Mg232       O240   2.108   1_565  S
Mg232       O233   2.273   1_565  S
Mg232       O234   2.319       .  S
Mg232       O261   2.176   1_565  S
O234        C238   1.272       .  A
O235       Mg242   2.278   1_545  S
O236        C255   1.281       .  A
O237        C257   1.275       .  A
O237       Mg253   2.374       .  S
O239       Mg253   2.123       .  S
O239        C250   1.237       .  S
O240       Mg259   2.186       .  S
O241       Mg253   2.319   1_545  S
Mg242       O258   2.174       .  S
O243       Mg259   2.333       .  S
H244        C249   1.081       .  S
O245       Mg253   2.192       .  S
O245        C248   1.241   1_455  S
H246        C248   1.081       .  S
H247        C250   1.081       .  S
O252       Mg259   2.325   1_655  S
C255        O260   1.268       .  A
O256        C257   1.252       .  A
C257        C266   1.467       .  S
C262        C263   1.411       .  A
C262        C267   1.402       .  A
C263        C264   1.409       .  A
C263        H268   1.084       .  S
C264        C265   1.398       .  A
C264        C680   1.435       .  S
C265        C266   1.387       .  A
C265        H269   1.085       .  S
C266        C267   1.411       .  A
C267        H270   1.085       .  S
C271        C272   1.400       .  A
C271        C276   1.411       .  A
C271        C700   1.434       .  S
C272        C273   1.387       .  A
C272        H277   1.085       .  S
C273        C274   1.410       .  A
C274        C275   1.405       .  A
C274        H278   1.085       .  S
C275        C276   1.409       .  A
C275        C605   1.483       .  S
C276        H279   1.084       .  S
C280        C281   1.413       .  A
C280        C285   1.399       .  A
C280        C705   1.436       .  S
C281        C282   1.411       .  A
C281        H286   1.083       .  S
C282        C283   1.407       .  A
C283        C284   1.412       .  A
C283        H287   1.085       .  S
C284        C285   1.386       .  A
C285        H288   1.086       .  S
O289       Mg291   2.084       .  S
O289       Mg297   2.122       .  S
O289        C324   1.237       .  S
C290        H329   1.081       .  S
C290        O303   1.241       .  S
C290        O327   1.277       .  A
Mg291       O320   2.108   1_556  S
Mg291       O335   2.275   1_556  S
Mg291       O331   2.173   1_556  S
Mg291       O302   2.320       .  S
O292       Mg334   2.123       .  S
O292       Mg317   2.091       .  S
O292        C313   1.237       .  S
O293        C324   1.272       .  A
O293       Mg317   2.318       .  S
C294        O296   1.279       .  A
C294        O308   1.270       .  A
C294        C414   1.486       .  S
O295        C323   1.277       .  A
O295       Mg297   2.319   1_554  S
O296       Mg328   2.338       .  S
Mg297       O303   2.192       .  S
Mg297       O311   2.329       .  S
Mg297       O299   2.371       .  S
C298        O336   1.254       .  A
C298        O304   1.279       .  A
C298        C357   1.472       .  S
O299        C306   1.275       .  A
H300        C313   1.081       .  S
C301        H326   1.081       .  S
C301        O315   1.241   1_554  S
C301        O316   1.278       .  A
O302        C325   1.273       .  A
O303       Mg317   2.107       .  S
O304       Mg334   2.388       .  S
C305        O318   1.281       .  A
C305        O310   1.268       .  A
C305        C573   1.487       .  S
C306        O333   1.252       .  A
C306        C339   1.467       .  S
Mg307       O314   2.093       .  S
Mg307       O315   2.107       .  S
Mg307       O308   2.280   1_556  S
Mg307       O309   2.319       .  S
Mg307       O336   2.177       .  S
O309        C313   1.273       .  A
O310       Mg317   2.270       .  S
O311        C330   1.278   1_556  A
O312        C332   1.279       .  A
O312       Mg328   2.390       .  S
O314       Mg328   2.121   1_556  S
O314        C325   1.237       .  S
O315       Mg334   2.195       .  S
O316       Mg328   2.325       .  S
Mg317       O333   2.171       .  S
O318       Mg334   2.349       .  S
H319        C324   1.081       .  S
O320       Mg328   2.188       .  S
O320        C323   1.241       .  S
H321        C323   1.081       .  S
H322        C325   1.081       .  S
O327       Mg334   2.320       .  S
C330        O335   1.269       .  A
C330        C500   1.482       .  S
O331        C332   1.253       .  A
C332        C348   1.472       .  S
C337        C338   1.398       .  A
C337        C342   1.408       .  A
C337        C676   1.434       .  S
C338        C339   1.387       .  A
C338        H343   1.086       .  S
C339        C340   1.411       .  A
C340        C341   1.402       .  A
C340        H344   1.085       .  S
C341        C342   1.410       .  A
C341        C531   1.478       .  S
C342        H345   1.084       .  S
C346        C347   1.407       .  A
C346        C351   1.410       .  A
C346        C480   1.486       .  S
C347        C348   1.412       .  A
C347        H352   1.085       .  S
C348        C349   1.386       .  A
C349        C350   1.399       .  A
C349        H353   1.086       .  S
C350        C351   1.412       .  A
C350        C691   1.435       .  S
C351        H354   1.084       .  S
C355        C356   1.405       .  A
C355        C360   1.411       .  A
C355        C380   1.486       .  S
C356        C357   1.411       .  A
C356        H361   1.085       .  S
C357        C358   1.387       .  A
C358        C359   1.400       .  A
C358        H362   1.085       .  S
C359        C360   1.413       .  A
C359        C718   1.437       .  S
C360        H363   1.083       .  S
O364       Mg366   2.090       .  S
O364       Mg372   2.123       .  S
O364        C399   1.237       .  S
C365        H404   1.081       .  S
C365        O378   1.241   1_556  S
C365        O402   1.278       .  A
Mg366       O395   2.107   1_655  S
Mg366       O410   2.271   1_655  S
Mg366       O406   2.170   1_655  S
Mg366       O377   2.318       .  S
O367       Mg409   2.121       .  S
O367       Mg392   2.093   1_556  S
O367        C388   1.237   1_556  S
O368        C399   1.273       .  A
O368       Mg392   2.319       .  S
C369        O371   1.278   1_556  A
C369        O383   1.269       .  A
O370        C398   1.277       .  A
O370       Mg372   2.320   1_455  S
O371       Mg403   2.330       .  S
Mg372       O378   2.195       .  S
Mg372       O386   2.346       .  S
Mg372       O374   2.387       .  S
C373        O411   1.253       .  A
C373        O379   1.279       .  A
C373        C434   1.472       .  S
O374        C381   1.279       .  A
H375        C388   1.081       .  S
C376        H401   1.081       .  S
C376        O390   1.241   1_455  S
C376        O391   1.277       .  A
O377        C400   1.272       .  A
O378       Mg392   2.107       .  S
O379       Mg409   2.390       .  S
C380        O393   1.279       .  A
C380        O385   1.270       .  A
C381        O408   1.254       .  A
C381        C416   1.472       .  S
Mg382       O389   2.085   1_556  S
Mg382       O390   2.108       .  S
Mg382       O383   2.274   1_655  S
Mg382       O384   2.320   1_556  S
Mg382       O411   2.173       .  S
O384        C388   1.273       .  A
O385       Mg392   2.280   1_556  S
O386        C405   1.280   1_655  A
O387        C407   1.275       .  A
O387       Mg403   2.372       .  S
O389       Mg403   2.122   1_655  S
O389        C400   1.237       .  S
O390       Mg409   2.189       .  S
O391       Mg403   2.319   1_556  S
Mg392       O408   2.178       .  S
O393       Mg409   2.339       .  S
H394        C399   1.081       .  S
O395       Mg403   2.192       .  S
O395        C398   1.241       .  S
H396        C398   1.081       .  S
H397        C400   1.081       .  S
O402       Mg409   2.325       .  S
C405        O410   1.268       .  A
O406        C407   1.252       .  A
C407        C425   1.467       .  S
C412        C413   1.413       .  A
C412        C417   1.400       .  A
C412        C704   1.437       .  S
C413        C414   1.411       .  A
C413        H418   1.083       .  S
C414        C415   1.405       .  A
C415        C416   1.410       .  A
C415        H419   1.085       .  S
C416        C417   1.387       .  A
C417        H420   1.085       .  S
C421        C422   1.410       .  A
C421        C426   1.402       .  A
C422        C423   1.409       .  A
C422        H427   1.084       .  S
C423        C424   1.398       .  A
C423        C701   1.434       .  S
C424        C425   1.387       .  A
C424        H428   1.086       .  S
C425        C426   1.411       .  A
C426        H429   1.085       .  S
C430        C431   1.412       .  A
C430        C435   1.399       .  A
C430        C688   1.434       .  S
C431        C432   1.410       .  A
C431        H436   1.084       .  S
C432        C433   1.407       .  A
C433        C434   1.412       .  A
C433        H437   1.085       .  S
C434        C435   1.386       .  A
C435        H438   1.086       .  S
O439       Mg441   2.093       .  S
O439       Mg447   2.123       .  S
O439        C474   1.237       .  S
C440        H479   1.081       .  S
C440        O453   1.241   1_565  S
C440        O477   1.278       .  A
Mg441       O470   2.109   1_556  S
Mg441       O485   2.276   1_556  S
Mg441       O481   2.176   1_556  S
Mg441       O452   2.318       .  S
O442       Mg484   2.122       .  S
O442       Mg467   2.092   1_565  S
O442        C463   1.237   1_565  S
O443        C474   1.273       .  A
O443       Mg467   2.319       .  S
C444        O446   1.279   1_565  A
C444        O458   1.269       .  A
O445        C473   1.277       .  A
O445       Mg447   2.323   1_554  S
O446       Mg478   2.342       .  S
Mg447       O453   2.193       .  S
Mg447       O461   2.342       .  S
Mg447       O449   2.385       .  S
C448        O486   1.253       .  A
C448        O454   1.279       .  A
C448        C509   1.471       .  S
O449        C456   1.278       .  A
H450        C463   1.081       .  S
C451        H476   1.081       .  S
C451        O465   1.241   1_554  S
C451        O466   1.277       .  A
O452        C475   1.272       .  A
O453       Mg467   2.108       .  S
O454       Mg484   2.389       .  S
C455        O468   1.280       .  A
C455        O460   1.269       .  A
C455        C655   1.489       .  S
C456        O483   1.253       .  A
C456        C489   1.471       .  S
Mg457       O464   2.090   1_565  S
Mg457       O465   2.109       .  S
Mg457       O458   2.277   1_556  S
Mg457       O459   2.320   1_565  S
Mg457       O486   2.172       .  S
O459        C463   1.273       .  A
O460       Mg467   2.279   1_565  S
O461        C480   1.279   1_556  A
O462        C482   1.278       .  A
O462       Mg478   2.383       .  S
O464       Mg478   2.122   1_556  S
O464        C475   1.237       .  S
O465       Mg484   2.195       .  S
O466       Mg478   2.322   1_565  S
Mg467       O483   2.176       .  S
O468       Mg484   2.348       .  S
H469        C474   1.081       .  S
O470       Mg478   2.193       .  S
O470        C473   1.241       .  S
H471        C473   1.081       .  S
H472        C475   1.081       .  S
O477       Mg484   2.323       .  S
C480        O485   1.269       .  A
O481        C482   1.253       .  A
C482        C498   1.470       .  S
C487        C488   1.400       .  A
C487        C492   1.412       .  A
C487        C686   1.434       .  S
C488        C489   1.387       .  A
C488        H493   1.085       .  S
C489        C490   1.410       .  A
C490        C491   1.405       .  A
C490        H494   1.085       .  S
C491        C492   1.409       .  A
C491        C630   1.483       .  S
C492        H495   1.084       .  S
C496        C497   1.400       .  A
C496        C501   1.411       .  A
C496        C697   1.433       .  S
C497        C498   1.386       .  A
C497        H502   1.085       .  S
C498        C499   1.410       .  A
C499        C500   1.404       .  A
C499        H503   1.085       .  S
C500        C501   1.409       .  A
C501        H504   1.084       .  S
C505        C506   1.412       .  A
C505        C510   1.399       .  A
C505        C681   1.433       .  S
C506        C507   1.409       .  A
C506        H511   1.084       .  S
C507        C508   1.406       .  A
C508        C509   1.412       .  A
C508        H512   1.085       .  S
C509        C510   1.385       .  A
C510        H513   1.086       .  S
O514       Mg516   2.126       .  S
O514       Mg522   2.159       .  S
O514        C549   1.241       .  S
C515        H554   1.081       .  S
C515        O528   1.238       .  S
C515        O552   1.270       .  A
Mg516       O545   2.127       .  S
Mg516       O560   2.225       .  S
Mg516       O556   2.215       .  S
Mg516       O527   2.286       .  S
O517       Mg559   2.159       .  S
O517       Mg542   2.128       .  S
O517        C538   1.242       .  S
O518        C549   1.273       .  A
O518       Mg542   2.286       .  S
C519        O521   1.280       .  A
C519        O533   1.266       .  A
C519        C564   1.475       .  S
O520        C548   1.271       .  A
O520       Mg522   2.301       .  S
O521       Mg553   2.296       .  S
Mg522       O528   2.092       .  S
Mg522       O536   2.285       .  S
Mg522       O524   2.383       .  S
C523        O561   1.267       .  A
C523        O529   1.285       .  A
C523        C637   1.479       .  S
O524        C531   1.284       .  A
H525        C538   1.081       .  S
C526        H551   1.081       .  S
C526        O540   1.238       .  S
C526        O541   1.271       .  A
O527        C550   1.273       .  A
O528       Mg542   2.125       .  S
O529       Mg559   2.387       .  S
C530        O543   1.279       .  A
C530        O535   1.266       .  A
C530        C575   1.474       .  S
C531        O558   1.267       .  A
Mg532       O539   2.130       .  S
Mg532       O540   2.127       .  S
Mg532       O533   2.240       .  S
Mg532       O534   2.287       .  S
Mg532       O561   2.223       .  S
O534        C538   1.274       .  A
O535       Mg542   2.237       .  S
O536        C555   1.277       .  A
O537        C557   1.287       .  A
O537       Mg553   2.403       .  S
O539       Mg553   2.159       .  S
O539        C550   1.241       .  S
O540       Mg559   2.102       .  S
O541       Mg553   2.304       .  S
Mg542       O558   2.222       .  S
O543       Mg559   2.295       .  S
H544        C549   1.081       .  S
O545       Mg553   2.096       .  S
O545        C548   1.238       .  S
H546        C548   1.081       .  S
H547        C550   1.081       .  S
O552       Mg559   2.298       .  S
C555        O560   1.264       .  A
C555        C584   1.470       .  S
O556        C557   1.265       .  A
C562        C563   1.397       .  A
C562        C567   1.413       .  A
C562        C708   1.436       .  S
C563        C564   1.386       .  A
C563        H568   1.086       .  S
C564        C565   1.414       .  A
C565        C566   1.409       .  A
C565        H569   1.084       .  S
C566        C567   1.412       .  A
C566        C594   1.489       .  S
C567        H570   1.083       .  S
C571        C572   1.411       .  A
C571        C576   1.398       .  A
C571        C684   1.435       .  S
C572        C573   1.410       .  A
C572        H577   1.083       .  S
C573        C574   1.408       .  A
C574        C575   1.414       .  A
C574        H578   1.085       .  S
C575        C576   1.386       .  A
C576        H579   1.086       .  S
C580        C581   1.412       .  A
C580        C585   1.405       .  A
C581        C582   1.409       .  A
C581        H586   1.084       .  S
C582        C583   1.395       .  A
C582        C689   1.434       .  S
C583        C584   1.386       .  A
C583        H587   1.086       .  S
C584        C585   1.415       .  A
C585        H588   1.084       .  S
O589       Mg591   2.090       .  S
O589       Mg597   2.122   1_565  S
O589        C624   1.237       .  S
C590        H629   1.081       .  S
C590        O603   1.241       .  S
C590        O627   1.277       .  A
Mg591       O620   2.108       .  S
Mg591       O635   2.278   1_565  S
Mg591       O631   2.173       .  S
Mg591       O602   2.320       .  S
O592       Mg634   2.123       .  S
O592       Mg617   2.088       .  S
O592        C613   1.238       .  S
O593        C624   1.272       .  A
O593       Mg617   2.318       .  S
C594        O596   1.282       .  A
C594        O608   1.268       .  A
O595        C623   1.278       .  A
O595       Mg597   2.324       .  S
O596       Mg628   2.354       .  S
Mg597       O603   2.186       .  S
Mg597       O611   2.332       .  S
Mg597       O599   2.382       .  S
C598        O636   1.252       .  A
C598        O604   1.275       .  A
C598        C639   1.467       .  S
O599        C606   1.278       .  A
H600        C613   1.081       .  S
C601        H626   1.081       .  S
C601        O615   1.241       .  S
C601        O616   1.277       .  A
O602        C625   1.273       .  A
O603       Mg617   2.108   1_545  S
O604       Mg634   2.374       .  S
C605        O618   1.278   1_545  A
C605        O610   1.269       .  A
C606        O633   1.254       .  A
C606        C648   1.471       .  S
Mg607       O614   2.090       .  S
Mg607       O615   2.106       .  S
Mg607       O608   2.274       .  S
Mg607       O609   2.319       .  S
Mg607       O636   2.171       .  S
O609        C613   1.273       .  A
O610       Mg617   2.274   1_545  S
O611        C630   1.278       .  A
O612        C632   1.280       .  A
O612       Mg628   2.393       .  S
O614       Mg628   2.122       .  S
O614        C625   1.238       .  S
O615       Mg634   2.194       .  S
O616       Mg628   2.322       .  S
Mg617       O633   2.177   1_565  S
O618       Mg634   2.332       .  S
H619        C624   1.081       .  S
O620       Mg628   2.196       .  S
O620        C623   1.241   1_565  S
H621        C623   1.081       .  S
H622        C625   1.081       .  S
O627       Mg634   2.319   1_545  S
C630        O635   1.269       .  A
O631        C632   1.253       .  A
C632        C659   1.473       .  S
C637        C638   1.402       .  A
C637        C642   1.410       .  A
C638        C639   1.411       .  A
C638        H643   1.085       .  S
C639        C640   1.387       .  A
C640        C641   1.398       .  A
C640        H644   1.086       .  S
C641        C642   1.409       .  A
C641        C713   1.435       .  S
C642        H645   1.084       .  S
C646        C647   1.404       .  A
C646        C651   1.409       .  A
C647        C648   1.410       .  A
C647        H652   1.085       .  S
C648        C649   1.387       .  A
C649        C650   1.400       .  A
C649        H653   1.085       .  S
C650        C651   1.411       .  A
C650        C673   1.434       .  S
C651        H654   1.084       .  S
C655        C656   1.411       .  A
C655        C660   1.407       .  A
C656        C657   1.413       .  A
C656        H661   1.083       .  S
C657        C658   1.399       .  A
C657        C719   1.436       .  S
C658        C659   1.385       .  A
C658        H662   1.086       .  S
C659        C660   1.412       .  A
C660        H663   1.085       .  S
C664        C665   1.397       .  A
C664        C669   1.403       .  A
C664        C677   1.436       .  S
C665        C666   1.402       .  A
C665        H670   1.085       .  S
C666        C667   1.398       .  A
C666        C675   1.436       .  S
C667        C668   1.403       .  A
C667        H671   1.085       .  S
C668        C669   1.398       .  A
C668        C674   1.437       .  S
C669        H672   1.085       .  S
C673        C674   1.204       .  T
C675        C676   1.203       .  T
C677        C678   1.203       .  T
C679        C680   1.204       .  T
C681        C682   1.204       .  T
C683        C684   1.205       .  T
C685        C686   1.204       .  T
C687        C688   1.204       .  T
C689        C690   1.204       .  T
C691        C692   1.204       .  T
C693        C694   1.204       .  T
C695        C696   1.204       .  T
C697        C698   1.203       .  T
C699        C700   1.204       .  T
C701        C702   1.203       .  T
C703        C704   1.206       .  T
C705        C706   1.205       .  T
C707        C708   1.206       .  T
C709        C710   1.204       .  T
C711        C712   1.204       .  T
C713        C714   1.204       .  T
C715        C716   1.205       .  T
C717        C718   1.205       .  T
C719        C720   1.205       .  T
