geometry optimzed in LAMMPS
_audit_creation_date              2020-11-30 
_audit_creation_method            'lammps2cif' 
_symmetry_space_group_name_H-M    'P1' 
_symmetry_Int_Tables_number       1 
_symmetry_cell_setting            triclinic 
loop_ 
_symmetry_equiv_pos_as_xyz 
  x,y,z 
_cell_length_a                    71.14553598 
_cell_length_b                    41.52773239087647 
_cell_length_c                    40.496978088237505 
_cell_angle_alpha                 89.95994344314822 
_cell_angle_beta                  90.21195831032067 
_cell_angle_gamma                 90.0141190278208 
loop_ 
_atom_site_label 
_atom_site_type_symbol 
_atom_site_fract_x 
_atom_site_fract_y 
_atom_site_fract_z 
_atom_site_charge 
C1          C  0.01696424  0.10709560  0.14970029     0.03700
C2          C  0.02647094  0.10055289  0.12011347    -0.12500
C3          C  0.04280817  0.11743857  0.11203286     0.01200
C4          C  0.04910268  0.14216794  0.13251820    -0.11000
C5          C  0.03947978  0.14967077  0.16149993     0.03700
C6          C  0.02336958  0.13211521  0.17022036    -0.10400
H7          H  0.02138493  0.08185604  0.10370015     0.09300
H8          H  0.06155437  0.15573522  0.12580724     0.06800
H9          H  0.01612077  0.13747174  0.19304953     0.06700
O10         O  0.89648428  0.91399060  0.05889487    -0.77900
C11         C  0.84159797  0.94344325  0.08720348     0.83100
O12         O  0.90457819  0.93692108  0.17351078    -0.79000
O13         O  0.84178575  0.88284832  0.17966155    -0.80500
O14         O  0.86820473  0.81882832  0.09126370    -0.80300
O15         O  0.90348697  0.86217201  0.06432396    -0.78900
Zn16       Zn  0.88261133  0.92667067  0.09978220     1.55700
O17         O  0.84120192  0.83980744  0.10809553    -0.80300
Cd18       Cd  0.88857676  0.85038704  0.10597086     1.59700
Cd19       Cd  0.88885040  0.89511119  0.17115137     1.59600
O20         O  0.90568027  0.82579436  0.13822446    -0.80300
O21         O  0.87723085  0.88927905  0.12654795    -1.90800
Cd22       Cd  0.84938803  0.88311861  0.12988671     1.59900
O23         O  0.90680747  0.85748198  0.18264939    -0.80300
O24         O  0.83540736  0.91952438  0.10379819    -0.78900
C25         C  0.90742990  0.95874693  0.15204995     0.83600
C26         C  0.90445019  0.88859084  0.04846552     0.83200
O27         O  0.85910794  0.94930071  0.08496164    -0.77900
C28         C  0.85042994  0.81769472  0.09343930     0.84100
O29         O  0.89945468  0.95756957  0.12385605    -0.78000
C30         C  0.91145542  0.83198431  0.16727869     0.84200
C31         C  0.85078096  0.88832734  0.20648285     0.84500
O32         O  0.86826279  0.89511048  0.20686178    -0.80400
C33         C  0.77154729  0.57441441  0.98794919     0.03700
C34         C  0.77825618  0.60075424  0.00626933    -0.12500
C35         C  0.79131246  0.62202489  0.99255697     0.01200
C36         C  0.79768148  0.61706735  0.96032053    -0.11000
C37         C  0.79110438  0.59102021  0.94155676     0.03700
C38         C  0.77790654  0.56975260  0.95538853    -0.10400
H39         H  0.77293972  0.60518719  0.03092300     0.09300
H40         H  0.80764806  0.63380046  0.94965250     0.06800
H41         H  0.77248238  0.54991051  0.94083041     0.06700
C42         C  0.00137490  0.62172508  0.31330117     0.03700
C43         C  0.98984894  0.61512165  0.34050441    -0.12500
C44         C  0.97357838  0.63315487  0.34595905     0.01200
C45         C  0.96839885  0.65722099  0.32366614    -0.11000
C46         C  0.97969583  0.66426012  0.29627668     0.03700
C47         C  0.99628680  0.64650080  0.29126228    -0.10400
H48         H  0.99349864  0.59587249  0.35747601     0.09300
H49         H  0.95566598  0.67089081  0.32802184     0.06800
H50         H  0.00528113  0.65202941  0.27047597     0.06700
O51         O  0.11330146  0.40494248  0.38969115    -0.77900
C52         C  0.16744797  0.44690591  0.36496713     0.83100
O53         O  0.10460782  0.43330931  0.27927499    -0.79000
O54         O  0.17074476  0.39724719  0.26810763    -0.80500
O55         O  0.15234433  0.31818963  0.35015658    -0.80300
O56         O  0.11400929  0.35175657  0.38406215    -0.78900
Zn57       Zn  0.12777434  0.42304887  0.35159203     1.55700
O58         O  0.17652360  0.34831645  0.33360540    -0.80300
Cd59       Cd  0.12895436  0.34630378  0.34108650     1.59700
Cd60       Cd  0.12322213  0.39477546  0.27858474     1.50800
O61         O  0.11183399  0.32138652  0.30937302    -0.80300
O62         O  0.13586616  0.38901774  0.32229681    -1.90800
Cd63       Cd  0.16376333  0.39029167  0.31706385     1.59900
O64         O  0.10785233  0.35429595  0.26645933    -0.80300
O65         O  0.17493602  0.42694905  0.34515113    -0.78900
C66         C  0.10174458  0.45451193  0.30141506     0.83600
C67         C  0.10871216  0.37690181  0.39938360     0.83200
O68         O  0.14975873  0.44753699  0.36955129    -0.77900
C69         C  0.16989424  0.32252421  0.34598167     0.84100
O70         O  0.11033423  0.45408349  0.32900401    -0.78000
C71         C  0.10470961  0.32778134  0.28129879     0.84200
C72         C  0.16111899  0.40138120  0.24184179     0.84500
O73         O  0.14317272  0.40155725  0.24209589    -0.80400
C74         C  0.24252514  0.08505364  0.47019919     0.03700
C75         C  0.23460920  0.08169666  0.50165005    -0.12500
C76         C  0.22164450  0.10441552  0.51320608     0.01200
C77         C  0.21699945  0.13100276  0.49337839    -0.11000
C78         C  0.22480747  0.13445917  0.46176986     0.03700
C79         C  0.23772980  0.11159838  0.45047843    -0.10400
H80         H  0.23843926  0.06130787  0.51700604     0.09300
H81         H  0.20710083  0.14875307  0.50234668     0.06800
H82         H  0.24386586  0.11419045  0.42612983     0.06700
C83         C  0.01080762  0.36754992  0.64709574     0.03700
C84         C  0.01671045  0.34372007  0.66949618    -0.12500
C85         C  0.03189927  0.32361919  0.66142777     0.01200
C86         C  0.04057890  0.32677620  0.63060039    -0.11000
C87         C  0.03462092  0.35027970  0.60813466     0.03700
C88         C  0.01990291  0.37091705  0.61668356    -0.10400
H89         H  0.00980491  0.34126530  0.69315011     0.09300
H90         H  0.05213528  0.31094004  0.62414439     0.06800
H91         H  0.01555807  0.38971860  0.59974202     0.06700
O92         O  0.85778713  0.54443962  0.59005979    -0.77900
C93         C  0.90048182  0.61232440  0.55546971     0.83100
O94         O  0.90570381  0.55233942  0.67502379    -0.79000
O95         O  0.90256833  0.66638300  0.65052532    -0.80500
O96         O  0.83820204  0.64923719  0.62415432    -0.80300
O97         O  0.83433162  0.57032576  0.61470357    -0.78900
Zn98       Zn  0.88135263  0.56757366  0.60445090     1.55700
O99         O  0.86373478  0.67406432  0.60598621    -0.80300
Cd100      Cd  0.84834264  0.60553200  0.64169053     1.59700
Cd101      Cd  0.88900696  0.59322733  0.67861284     1.59600
O102        O  0.84202826  0.60074750  0.69133472    -0.80300
O103        O  0.87604660  0.60179006  0.63548228    -1.90800
Cd104      Cd  0.88537410  0.64337497  0.61756995     1.59900
O105        O  0.86923581  0.58881768  0.71611838    -0.80300
O106        O  0.89975796  0.63660053  0.57447893    -0.78900
C107        C  0.90841501  0.53282893  0.65121535     0.83600
C108        C  0.84029495  0.54848825  0.59526144     0.83200
O109        O  0.89345959  0.58530628  0.56370348    -0.77900
C110        C  0.84601041  0.67308890  0.60996269     0.84100
O111        O  0.89974360  0.53600124  0.62381144    -0.78000
C112        C  0.85148824  0.59347981  0.71711512     0.84200
C113        C  0.90969944  0.65844899  0.67817822     0.84500
O114        O  0.90652729  0.63123155  0.69161937    -0.80400
C115        C  0.76031369  0.89055457  0.46570213     0.03700
C116        C  0.77006108  0.89530380  0.43586611    -0.12500
C117        C  0.78511987  0.87501127  0.42715344     0.01200
C118        C  0.79017223  0.84981861  0.44850326    -0.11000
C119        C  0.78114750  0.84571911  0.47891323     0.03700
C120        C  0.76608689  0.86583196  0.48711688    -0.10400
H121        H  0.76597024  0.91479012  0.41955700     0.09300
H122        H  0.80139502  0.83356588  0.44167341     0.06800
H123        H  0.75904153  0.86258990  0.51058579     0.06700
C124        C  0.00408246  0.87387376  0.80244207     0.03700
C125        C  0.99351053  0.88485856  0.82936393    -0.12500
C126        C  0.97746222  0.86807115  0.83949677     0.01200
C127        C  0.97165129  0.84086886  0.82181806    -0.11000
C128        C  0.98208357  0.82977287  0.79483942     0.03700
C129        C  0.99818238  0.84657879  0.78495363    -0.10400
H130        H  0.99802760  0.90600450  0.84289429     0.09300
H131        H  0.95907832  0.82807183  0.82929984     0.06800
H132        H  0.00618554  0.83828887  0.76386563     0.06700
O133        O  0.16003575  0.04165066  0.86179100    -0.77900
C134        C  0.11349754  0.09684940  0.90066961     0.83100
O135        O  0.11167812  0.04611882  0.77686659    -0.79000
O136        O  0.10682911  0.15680641  0.81139651    -0.80500
O137        O  0.17292447  0.15227136  0.83101125    -0.80300
O138        O  0.18206848  0.07306704  0.83996996    -0.78900
Zn139      Zn  0.13521589  0.06016482  0.84824929     1.55700
O140        O  0.14603408  0.16956262  0.85237455    -0.80300
Cd141      Cd  0.16586461  0.10636177  0.81356975     1.59700
Cd142      Cd  0.12525903  0.09019752  0.77700036     1.59600
O143        O  0.17217906  0.10234120  0.76353859    -0.80300
O144        O  0.13839265  0.09743222  0.82009401    -1.90800
Cd145      Cd  0.12652937  0.13533706  0.84119919     1.59900
O146        O  0.14468766  0.09062154  0.73946754    -0.80300
O147        O  0.11400702  0.12322310  0.88477208    -0.78900
C148        C  0.11137971  0.02355002  0.79816455     0.83600
C149        C  0.17723553  0.04899018  0.85763061     0.83200
O150        O  0.12120613  0.07136676  0.88976378    -0.77900
C151        C  0.16338414  0.17350059  0.84648048     0.84100
O152        O  0.12022601  0.02595181  0.82543960    -0.78000
C153        C  0.16233243  0.09576659  0.73795806     0.84200
C154        C  0.09997093  0.15037325  0.78317065     0.84500
O155        O  0.10541846  0.12579565  0.76690573    -0.80400
C156        C  0.24522199  0.40077157  0.97622427     0.03700
C157        C  0.23844682  0.40732903  0.00807490    -0.12500
C158        C  0.22446192  0.38784265  0.02200376     0.01200
C159        C  0.21719903  0.36178188  0.00403199    -0.11000
C160        C  0.22399557  0.35480649  0.97239242     0.03700
C161        C  0.23801134  0.37437511  0.95866408    -0.10400
H162        H  0.24410162  0.42738862  0.02203882     0.09300
H163        H  0.20606018  0.34725135  0.01451555     0.06800
H164        H  0.24313977  0.36930683  0.93401772     0.06700
C165        C  0.49849771  0.61108149  0.15763079     0.03700
C166        C  0.48883651  0.60609453  0.12777310    -0.12500
C167        C  0.47349394  0.62550593  0.11929440     0.01200
C168        C  0.46768863  0.64981743  0.14070969    -0.11000
C169        C  0.47728392  0.65522471  0.17038439     0.03700
C170        C  0.49272462  0.63585009  0.17897227    -0.10400
H171        H  0.49322295  0.58709712  0.11120075     0.09300
H172        H  0.45572077  0.66474367  0.13417329     0.06800
H173        H  0.50004358  0.63979979  0.20214016     0.06700
O174        O  0.65446854  0.44493451  0.09311607    -0.77900
C175        C  0.61003589  0.38106852  0.05381118     0.83100
O176        O  0.60863144  0.43234027  0.17864056    -0.79000
O177        O  0.60609530  0.32356095  0.14648018    -0.80500
O178        O  0.67157992  0.33459231  0.11505095    -0.80300
O179        O  0.67756683  0.41387173  0.11239342    -0.78900
Zn180      Zn  0.63061745  0.42115917  0.10529807     1.55700
O181        O  0.64448508  0.31224500  0.10041820    -0.80300
Cd182      Cd  0.66361135  0.37751180  0.13727433     1.59700
Cd183      Cd  0.62508469  0.39127729  0.17840767     1.59600
O184        O  0.67200387  0.37798263  0.18656494    -0.80300
O185        O  0.63594777  0.38441071  0.13355128    -1.90800
Cd186      Cd  0.62436684  0.34514463  0.11424953     1.59900
O187        O  0.64627405  0.39376912  0.21359658    -0.80300
O188        O  0.60984934  0.35601197  0.07185413    -0.78900
C189        C  0.60447270  0.45252085  0.15610117     0.83600
C190        C  0.67190572  0.43864222  0.09659427     0.83200
O191        O  0.61836851  0.40681862  0.06266385    -0.77900
C192        C  0.66233976  0.31179969  0.10145055     0.84100
O193        O  0.61211633  0.45092545  0.12767454    -0.78000
C194        C  0.66364272  0.38607019  0.21315110     0.84200
C195        C  0.60066221  0.32988081  0.17563470     0.84500
O196        O  0.60703764  0.35406275  0.19152236    -0.80400
C197        C  0.75121159  0.09238631  0.96932888     0.03700
C198        C  0.74512704  0.08960409  0.93622249    -0.12500
C199        C  0.73248225  0.11224559  0.92255238     0.01200
C200        C  0.72586277  0.13742614  0.94260054    -0.11000
C201        C  0.73202184  0.14068314  0.97538024     0.03700
C202        C  0.74478911  0.11835303  0.98839985    -0.10400
H203        H  0.75002004  0.06965229  0.92129223     0.09300
H204        H  0.71542289  0.15398606  0.93300558     0.06800
H205        H  0.74956346  0.12099493  0.01372026     0.06700
C206        C  0.50276252  0.11867983  0.30211581     0.03700
C207        C  0.51294269  0.11162838  0.33098650    -0.12500
C208        C  0.52875249  0.12983426  0.33954362     0.01200
C209        C  0.53421788  0.15557852  0.31956328    -0.11000
C210        C  0.52407252  0.16309148  0.29088615     0.03700
C211        C  0.50821845  0.14474283  0.28215612    -0.10400
H212        H  0.50872935  0.09164842  0.34649620     0.09300
H213        H  0.54658292  0.16952576  0.32607447     0.06800
H214        H  0.50056371  0.15009258  0.25964871     0.06700
O215        O  0.35361788  0.93957973  0.37197279    -0.77900
C216        C  0.39789453  0.87538695  0.40642061     0.83100
O217        O  0.39865213  0.93362830  0.28430164    -0.79000
O218        O  0.39978262  0.82045881  0.31300995    -0.80500
O219        O  0.33438031  0.83248014  0.34106707    -0.80300
O220        O  0.32976890  0.91234170  0.34981516    -0.78900
Zn221      Zn  0.37692587  0.91730154  0.35705932     1.55700
O222        O  0.36100057  0.80962177  0.35755812    -0.80300
Cd223      Cd  0.34334549  0.87691755  0.32288559     1.59700
Cd224      Cd  0.38277924  0.89128156  0.28323480     1.59600
O225        O  0.33543698  0.88129784  0.27375800    -0.80300
O226        O  0.37119936  0.88229413  0.32731470    -1.90800
Cd227      Cd  0.38185099  0.84186356  0.34587607     1.59900
O228        O  0.36196843  0.89376534  0.24731057    -0.80300
O229        O  0.39642906  0.85015157  0.38887815    -0.78900
C230        C  0.40150378  0.95350994  0.30784743     0.83600
C231        C  0.33609628  0.93524610  0.36764690     0.83200
O232        O  0.39072863  0.90203425  0.39734002    -0.77900
C233        C  0.34323252  0.80900149  0.35428588     0.84100
O234        O  0.39363174  0.94968233  0.33564866    -0.78000
C235        C  0.34428591  0.88846150  0.24740660     0.84200
C236        C  0.40558120  0.82799115  0.28432628     0.84500
O237        O  0.40053116  0.85390511  0.26991811    -0.80400
C238        C  0.25571869  0.58980517  0.48937834     0.03700
C239        C  0.26331815  0.61373782  0.46891705    -0.12500
C240        C  0.27833738  0.63275164  0.47984146     0.01200
C241        C  0.28636020  0.62667738  0.51090586    -0.11000
C242        C  0.27913465  0.60238815  0.53133642     0.03700
C243        C  0.26366755  0.58425712  0.52062347    -0.10400
H244        H  0.25754547  0.61757455  0.44440306     0.09300
H245        H  0.29834054  0.64071875  0.51909770     0.06800
H246        H  0.25784177  0.56581888  0.53654547     0.06700
C247        C  0.51752752  0.37399273  0.80093502     0.03700
C248        C  0.52326296  0.35108902  0.77742422    -0.12500
C249        C  0.53926914  0.33213995  0.78331472     0.01200
C250        C  0.54987512  0.33687860  0.81204493    -0.11000
C251        C  0.54450362  0.35981525  0.83535934     0.03700
C252        C  0.52812378  0.37780028  0.83004167    -0.10400
H253        H  0.51549523  0.34827689  0.75449949     0.09300
H254        H  0.56240244  0.32257693  0.81624206     0.06800
H255        H  0.52357477  0.39480752  0.84867389     0.06700
O256        O  0.39622563  0.57470227  0.89497569    -0.77900
C257        C  0.34243871  0.53999495  0.86480672     0.83100
O258        O  0.40592651  0.54861202  0.78050123    -0.79000
O259        O  0.34183481  0.59396877  0.77162339    -0.80500
O260        O  0.36631805  0.66782011  0.85381044    -0.80300
O261        O  0.40064869  0.62708703  0.88869316    -0.78900
Zn262      Zn  0.38329690  0.55948965  0.85364464     1.55700
O263        O  0.33999357  0.64268347  0.83853274    -0.80300
Cd264      Cd  0.38750476  0.63573833  0.84435196     1.59700
Cd265      Cd  0.38937390  0.58988825  0.78020146     1.59600
O266        O  0.40604517  0.65855613  0.81357973    -0.80300
O267        O  0.37747149  0.59537433  0.82471446    -1.90800
Cd268      Cd  0.34957061  0.59885908  0.82050987     1.59900
O269        O  0.40653440  0.62926015  0.76783633    -0.80300
O270        O  0.33610963  0.56299078  0.84711557    -0.78900
C271        C  0.40892712  0.52748727  0.80285246     0.83600
C272        C  0.40244663  0.60144119  0.90563626     0.83200
O273        O  0.36003374  0.53552376  0.86842448    -0.77900
C274        C  0.34852252  0.66687026  0.85089941     0.84100
O275        O  0.40099073  0.52922114  0.83091294    -0.78000
C276        C  0.41178123  0.65394675  0.78423260     0.84200
C277        C  0.35065250  0.58838712  0.74484641     0.84500
O278        O  0.36850165  0.58552236  0.74441799    -0.80400
C279        C  0.26943327  0.90130840  0.97277466     0.03700
C280        C  0.27398927  0.90441285  0.00640189    -0.12500
C281        C  0.28619998  0.88241648  0.02167267     0.01200
C282        C  0.29373934  0.85696702  0.00318545    -0.11000
C283        C  0.29019490  0.85448249  0.96912073     0.03700
C284        C  0.27793433  0.87677115  0.95420583    -0.10400
H285        H  0.26806420  0.92394203  0.02068759     0.09300
H286        H  0.30253759  0.83929138  0.01537809     0.06800
H287        H  0.27481527  0.87485064  0.92802965     0.06700
C288        C  0.49744238  0.88000027  0.65460448     0.03700
C289        C  0.49149636  0.85622629  0.67703853    -0.12500
C290        C  0.47609543  0.83648533  0.66930496     0.01200
C291        C  0.46701200  0.83994273  0.63881309    -0.11000
C292        C  0.47292209  0.86320727  0.61613974     0.03700
C293        C  0.48816914  0.88310189  0.62406996    -0.10400
H294        H  0.49861258  0.85343935  0.70055897     0.09300
H295        H  0.45525189  0.82441149  0.63271064     0.06800
H296        H  0.49279006  0.90109401  0.60646622     0.06700
O297        O  0.61380108  0.07578525  0.55391685    -0.77900
C298        C  0.66956077  0.03822905  0.58050761     0.83100
O299        O  0.61052001  0.05146347  0.67062568    -0.79000
O300        O  0.67408193  0.09651497  0.67442858    -0.80500
O301        O  0.65117389  0.16526102  0.58601198    -0.80300
O302        O  0.61278465  0.12878661  0.55911622    -0.78900
Zn303      Zn  0.62927646  0.06065273  0.59353504     1.55700
O304        O  0.67625994  0.13836482  0.60345698    -0.80300
Cd305      Cd  0.62881659  0.13727992  0.60051959     1.59700
Cd306      Cd  0.62657818  0.09295872  0.66683834     1.59600
O307        O  0.61249128  0.16338835  0.63237621    -0.80300
O308        O  0.63735571  0.09640604  0.62132068    -1.90800
Cd309      Cd  0.66529044  0.09751588  0.62531315     1.59900
O310        O  0.60914503  0.13182601  0.67631995    -0.80300
O311        O  0.67665137  0.05954397  0.59940749    -0.78900
C312        C  0.60636316  0.02978549  0.64958421     0.83600
C313        C  0.60837296  0.10331132  0.54359226     0.83200
O314        O  0.65182799  0.03621810  0.57603623    -0.77900
C315        C  0.66893481  0.16242643  0.58883347     0.84100
O316        O  0.61289121  0.03075237  0.62026561    -0.78000
C317        C  0.60544575  0.15769655  0.66057682     0.84200
C318        C  0.66544924  0.09482149  0.70193824     0.84500
O319        O  0.64753424  0.09306081  0.70308901    -0.80400
C320        C  0.75258159  0.39623834  0.47641494     0.03700
C321        C  0.74436791  0.40207908  0.44528255    -0.12500
C322        C  0.73228392  0.37913638  0.43090564     0.01200
C323        C  0.72854357  0.35046423  0.44791971    -0.11000
C324        C  0.73655988  0.34445225  0.47890088     0.03700
C325        C  0.74844549  0.36751458  0.49320218    -0.10400
H326        H  0.74701223  0.42466118  0.43273371     0.09300
H327        H  0.71890170  0.33303189  0.43735202     0.06800
H328        H  0.75438228  0.36319544  0.51748296     0.06700
C329        C  0.73057665  0.31576490  0.49767973    -0.11400
C330        C  0.73240222  0.28434732  0.48479196     0.04100
C331        C  0.72394859  0.25841794  0.50107620    -0.11900
C332        C  0.71348575  0.26346125  0.52985305     0.18900
C333        C  0.71223991  0.29456927  0.54334804    -0.09000
C334        C  0.72090256  0.32038518  0.52741309    -0.01900
H335        H  0.72493987  0.23446151  0.49062794     0.05500
C336        C  0.70251896  0.23674671  0.54390940     0.20900
H337        H  0.71922776  0.34443826  0.53734024     0.10600
C338        C  0.71101985  0.21528316  0.56602673    -0.15300
C339        C  0.70056024  0.19078107  0.58109021     0.03600
C340        C  0.68110353  0.18759048  0.57388041    -0.10600
C341        C  0.67286392  0.20911802  0.55116544    -0.00700
C342        C  0.68337315  0.23338371  0.53623917    -0.05800
H343        H  0.72578776  0.21796650  0.57199249     0.06600
H344        H  0.65811792  0.20712956  0.54474581     0.10000
Br345      Br  0.69777768  0.30313463  0.58225419    -0.05500
Br346      Br  0.74600176  0.27571251  0.44490898    -0.02500
Br347      Br  0.71386636  0.16382844  0.61190710     0.00400
Br348      Br  0.67097213  0.26159230  0.50554109    -0.04000
C349        C  0.51390797  0.90057445  0.66212344    -0.11400
C350        C  0.51314856  0.93443431  0.65906730     0.04100
C351        C  0.52957470  0.95259350  0.66241398    -0.11900
C352        C  0.54686005  0.93766281  0.66888174     0.18900
C353        C  0.54746859  0.90415116  0.67396562    -0.09000
C354        C  0.53105483  0.88588376  0.67053836    -0.01900
H355        H  0.52897496  0.97845091  0.65889118     0.05500
C356        C  0.56409046  0.95739924  0.66702985     0.20900
H357        H  0.53182928  0.85995520  0.67324163     0.10600
C358        C  0.56779774  0.98031000  0.69156777    -0.15300
C359        C  0.58216339  0.00311488  0.68769730     0.03600
C360        C  0.59301830  0.00340665  0.65830667    -0.10600
C361        C  0.58978800  0.97904588  0.63475843    -0.00700
C362        C  0.57545178  0.95647404  0.63875714    -0.05800
H363        H  0.55901118  0.98114721  0.71334661     0.06600
H364        H  0.59789240  0.97826231  0.61218659     0.10000
Br365      Br  0.57042978  0.88229980  0.68469718    -0.05500
Br366      Br  0.49013909  0.95729974  0.65075136    -0.02500
Br367      Br  0.58514455  0.03359683  0.72304854     0.00400
Br368      Br  0.57078353  0.92683444  0.60328835    -0.04000
C369        C  0.33772379  0.69462023  0.86317054    -0.11400
C370        C  0.32225984  0.69063143  0.88444779     0.04100
C371        C  0.31392211  0.71763029  0.89897057    -0.11900
C372        C  0.32071892  0.74876902  0.89261906     0.18900
C373        C  0.33587374  0.75274585  0.87066330    -0.09000
C374        C  0.34426060  0.72578532  0.85629027    -0.01900
H375        H  0.30252701  0.71423211  0.91632070     0.05500
C376        C  0.31285398  0.77636262  0.91118935     0.20900
H377        H  0.35618180  0.72913865  0.84003626     0.10600
C378        C  0.32457853  0.79348048  0.93287870    -0.15300
C379        C  0.31772406  0.81937272  0.95134159     0.03600
C380        C  0.29848406  0.82783748  0.94930027    -0.10600
C381        C  0.28679217  0.81053651  0.92750854    -0.00700
C382        C  0.29384421  0.78530035  0.90833337    -0.05800
H383        H  0.33924170  0.78686389  0.93516379     0.06600
H384        H  0.27205216  0.81660227  0.92538316     0.10000
Br385      Br  0.34571783  0.79440484  0.85959594    -0.05500
Br386      Br  0.31333148  0.64885619  0.89740820    -0.02500
Br387      Br  0.33582218  0.84333587  0.97668465     0.00400
Br388      Br  0.27711994  0.76473261  0.87762771    -0.04000
C389        C  0.46930918  0.81167744  0.69243346    -0.11400
C390        C  0.45085082  0.81281587  0.70483866     0.04100
C391        C  0.44366114  0.78658114  0.72226268    -0.11900
C392        C  0.45460792  0.75897978  0.72767568     0.18900
C393        C  0.47332192  0.75832946  0.71641523    -0.09000
C394        C  0.48057371  0.78470092  0.69904924    -0.01900
H395        H  0.42926520  0.78734502  0.73088074     0.05500
C396        C  0.44568434  0.73066207  0.74329916     0.20900
H397        H  0.49476378  0.78360363  0.68949311     0.10600
C398        C  0.44207661  0.70315011  0.72424747    -0.15300
C399        C  0.43163088  0.67731634  0.73690117     0.03600
C400        C  0.42438724  0.67890449  0.76946152    -0.10600
C401        C  0.42873705  0.70630558  0.78868139    -0.00700
C402        C  0.43916597  0.73189666  0.77593337    -0.05800
H403        H  0.44701155  0.70215641  0.69897948     0.06600
H404        H  0.42371027  0.70837196  0.81379542     0.10000
Br405      Br  0.48932647  0.72185076  0.72370990    -0.05500
Br406      Br  0.43484355  0.84949930  0.69817958    -0.02500
Br407      Br  0.42780480  0.64146737  0.70771207     0.00400
Br408      Br  0.44408476  0.76816021  0.80407676    -0.04000
C409        C  0.59296443  0.18201515  0.67589950    -0.11400
C410        C  0.58387711  0.20651574  0.65734319     0.04100
C411        C  0.57318829  0.22985072  0.67352304    -0.11900
C412        C  0.57139943  0.22954179  0.70788877     0.18900
C413        C  0.57995345  0.20491241  0.72637087    -0.09000
C414        C  0.59050225  0.18131609  0.71035968    -0.01900
H415        H  0.56662457  0.24892611  0.65930464     0.05500
C416        C  0.56221383  0.25689811  0.72426811     0.20900
H417        H  0.59734333  0.16299042  0.72517339     0.10600
C418        C  0.54407438  0.25342850  0.73719953    -0.15300
C419        C  0.53583246  0.27845903  0.75518322     0.03600
C420        C  0.54569785  0.30756936  0.75972173    -0.10600
C421        C  0.56359799  0.31121537  0.74582549    -0.00700
C422        C  0.57194420  0.28606995  0.72846389    -0.05800
H423        H  0.53665778  0.23080691  0.73438339     0.06600
H424        H  0.57147599  0.33319855  0.74991364     0.10000
Br425      Br  0.57867357  0.20382971  0.77368344    -0.05500
Br426      Br  0.58514076  0.21007281  0.61004200    -0.02500
Br427      Br  0.51210943  0.27047311  0.77593108     0.00400
Br428      Br  0.59729249  0.29156316  0.71340215    -0.04000
C429        C  0.50106244  0.39521294  0.79514876    -0.11400
C430        C  0.48306511  0.38298179  0.78737070     0.04100
C431        C  0.46781020  0.40404434  0.78416987    -0.11900
C432        C  0.46999709  0.43721564  0.78945135     0.18900
C433        C  0.48785360  0.44935672  0.79798866    -0.09000
C434        C  0.50321041  0.42852274  0.80003594    -0.01900
H435        H  0.45398814  0.39435773  0.77875197     0.05500
C436        C  0.45318811  0.45815883  0.78970001     0.20900
H437        H  0.51684265  0.43829317  0.80663161     0.10600
C438        C  0.43943054  0.45280857  0.81372542    -0.15300
C439        C  0.42423555  0.47382672  0.81727946     0.03600
C440        C  0.42281549  0.50142237  0.79677686    -0.10600
C441        C  0.43598732  0.50535255  0.77121245    -0.00700
C442        C  0.45095405  0.48386390  0.76737831    -0.05800
H443        H  0.44075728  0.43247469  0.83035921     0.06600
H444        H  0.43502602  0.52576490  0.75463108     0.10000
Br445      Br  0.49170473  0.49350125  0.81044982    -0.05500
Br446      Br  0.47791496  0.33774310  0.78458106    -0.02500
Br447      Br  0.40598814  0.46250756  0.85023600     0.00400
Br448      Br  0.46791881  0.49054456  0.73126697    -0.04000
C449        C  0.28756024  0.59684977  0.56422897    -0.11400
C450        C  0.29549616  0.56694504  0.57319507     0.04100
C451        C  0.30444780  0.56357947  0.60381822    -0.11900
C452        C  0.30560003  0.58960972  0.62575326     0.18900
C453        C  0.29747198  0.61932625  0.61697531    -0.09000
C454        C  0.28850301  0.62269608  0.58645768    -0.01900
H455        H  0.31096785  0.54083898  0.61022136     0.05500
C456        C  0.31685448  0.58630803  0.65621188     0.20900
H457        H  0.28253790  0.64580369  0.57973904     0.10600
C458        C  0.33645207  0.58512116  0.65368828    -0.15300
C459        C  0.34787065  0.58466367  0.68187613     0.03600
C460        C  0.33955279  0.58574077  0.71366732    -0.10600
C461        C  0.31975537  0.58539788  0.71579117    -0.00700
C462        C  0.30846451  0.58549937  0.68750388    -0.05800
H463        H  0.34292717  0.58527146  0.62950570     0.06600
H464        H  0.31288435  0.58537152  0.73961889     0.10000
Br465      Br  0.29929942  0.65656268  0.64484681    -0.05500
Br466      Br  0.29591300  0.53081459  0.54366376    -0.02500
Br467      Br  0.37450126  0.58337082  0.67412310     0.00400
Br468      Br  0.28166968  0.58436192  0.69273511    -0.04000
C469        C  0.29150147  0.88601527  0.05685659    -0.11400
C470        C  0.30165258  0.91308595  0.06811576     0.04100
C471        C  0.30848830  0.91385639  0.10051669    -0.11900
C472        C  0.30520177  0.88817370  0.12217094     0.18900
C473        C  0.29417709  0.86197547  0.11162652    -0.09000
C474        C  0.28757900  0.86088577  0.07903404    -0.01900
H475        H  0.31698368  0.93407309  0.10854285     0.05500
C476        C  0.31494532  0.88785893  0.15439627     0.20900
H477        H  0.27964062  0.84010563  0.07076796     0.10600
C478        C  0.30599098  0.90014330  0.18245355    -0.15300
C479        C  0.31533499  0.90105556  0.21298203     0.03600
C480        C  0.33394905  0.88939276  0.21564042    -0.10600
C481        C  0.34289116  0.87752357  0.18727149    -0.00700
C482        C  0.33354109  0.87664394  0.15689603    -0.05800
H483        H  0.29181397  0.90940159  0.18047764     0.06600
H484        H  0.35712194  0.86841591  0.18880258     0.10000
Br485      Br  0.28836293  0.82686002  0.14062356    -0.05500
Br486      Br  0.30791452  0.94846845  0.03970825    -0.02500
Br487      Br  0.30243671  0.92055522  0.24941871     0.00400
Br488      Br  0.34668266  0.85979450  0.11937941    -0.04000
C489        C  0.46232498  0.86751561  0.58505789    -0.11400
C490        C  0.47098213  0.86520662  0.55386556     0.04100
C491        C  0.46008372  0.86798392  0.52523587    -0.11900
C492        C  0.44064917  0.87295482  0.52721923     0.18900
C493        C  0.43201560  0.87560693  0.55823219    -0.09000
C494        C  0.44286353  0.87289914  0.58685493    -0.01900
H495        H  0.46670640  0.86562545  0.50131588     0.05500
C496        C  0.42951110  0.87399180  0.49663602     0.20900
H497        H  0.43607535  0.87487307  0.61067294     0.10600
C498        C  0.41919830  0.84673539  0.48732323    -0.15300
C499        C  0.40874160  0.84652547  0.45807371     0.03600
C500        C  0.40850638  0.87419135  0.43771615    -0.10600
C501        C  0.41873440  0.90156905  0.44744131    -0.00700
C502        C  0.42929807  0.90154264  0.47652914    -0.05800
H503        H  0.41930946  0.82551437  0.50294647     0.06600
H504        H  0.41875637  0.92296913  0.43208632     0.10000
Br505      Br  0.40552645  0.88308050  0.56257792    -0.05500
Br506      Br  0.49724719  0.85605129  0.54875328    -0.02500
Br507      Br  0.39445905  0.80835924  0.44844421     0.00400
Br508      Br  0.44312629  0.93961136  0.48799979    -0.04000
C509        C  0.28589092  0.65856653  0.45852725    -0.11400
C510        C  0.28689994  0.69070003  0.46956013     0.04100
C511        C  0.29511247  0.71419716  0.44953303    -0.11900
C512        C  0.30191918  0.70641226  0.41805835     0.18900
C513        C  0.30007777  0.67463055  0.40637152    -0.09000
C514        C  0.29219144  0.65096179  0.42664845    -0.01900
H515        H  0.29627767  0.73864533  0.45860008     0.05500
C516        C  0.31185775  0.73138727  0.39876309     0.20900
H517        H  0.29115471  0.62647129  0.41764852     0.10600
C518        C  0.33112351  0.72774252  0.39300132    -0.15300
C519        C  0.34149429  0.75183605  0.37726670     0.03600
C520        C  0.33257301  0.78092989  0.36748962    -0.10600
C521        C  0.31303991  0.78385535  0.37229324    -0.00700
C522        C  0.30271436  0.75941537  0.38768268    -0.05800
H523        H  0.33821664  0.70607115  0.40125503     0.06600
H524        H  0.30575057  0.80555903  0.36474961     0.10000
Br525      Br  0.30765144  0.66270759  0.36263262    -0.05500
Br526      Br  0.27635481  0.70405144  0.51093774    -0.02500
Br527      Br  0.36760257  0.74236223  0.36976659     0.00400
Br528      Br  0.27611116  0.76509632  0.39270595    -0.04000
C529        C  0.59652247  0.10567982  0.51318637    -0.11400
C530        C  0.59206058  0.13559091  0.49798468     0.04100
C531        C  0.58030546  0.13639817  0.47032376    -0.11900
C532        C  0.57282095  0.10818134  0.45685529     0.18900
C533        C  0.57762002  0.07831676  0.47097202    -0.09000
C534        C  0.58925247  0.07727521  0.49895597    -0.01900
H535        H  0.57703372  0.15939285  0.45895986     0.05500
C536        C  0.56059174  0.11090881  0.42739398     0.20900
H537        H  0.59248601  0.05402330  0.50972503     0.10600
C538        C  0.56752956  0.10112522  0.39660674    -0.15300
C539        C  0.55728980  0.10702120  0.36767748     0.03600
C540        C  0.53960312  0.12208963  0.36949161    -0.10600
C541        C  0.53249555  0.13134476  0.40023257    -0.00700
C542        C  0.54297836  0.12642043  0.42903524    -0.05800
H543        H  0.58126387  0.08997684  0.39498315     0.06600
H544        H  0.51901698  0.14341289  0.40167013     0.10000
Br545      Br  0.56834972  0.03845615  0.45335164    -0.05500
Br546      Br  0.60165042  0.17667051  0.51206966    -0.02500
Br547      Br  0.56821990  0.09513877  0.32620352     0.00400
Br548      Br  0.53294581  0.14245305  0.46974973    -0.04000
C549        C  0.48670064  0.09795228  0.29314780    -0.11400
C550        C  0.48953691  0.06553272  0.28425388     0.04100
C551        C  0.47418761  0.04464656  0.28177777    -0.11900
C552        C  0.45593540  0.05550902  0.28846569     0.18900
C553        C  0.45300578  0.08827317  0.29590127    -0.09000
C554        C  0.46835354  0.10932041  0.29788154    -0.01900
H555        H  0.47660453  0.01943527  0.27634694     0.05500
C556        C  0.44078145  0.03144190  0.29236289     0.20900
H557        H  0.46606767  0.13417085  0.30494629     0.10600
C558        C  0.43472970  0.02408804  0.32430232    -0.15300
C559        C  0.42179491  0.99942808  0.33005472     0.03600
C560        C  0.41453192  0.98125238  0.30312677    -0.10600
C561        C  0.42046921  0.98922646  0.27097994    -0.00700
C562        C  0.43346923  0.01399965  0.26550379    -0.05800
H563        H  0.44055236  0.03718982  0.34513580     0.06600
H564        H  0.41510394  0.97600555  0.24990624     0.10000
Br565      Br  0.42841966  0.10481508  0.30518566    -0.05500
Br566      Br  0.51424366  0.04841927  0.27702004    -0.02500
Br567      Br  0.41591004  0.99158522  0.37573331     0.00400
Br568      Br  0.44073845  0.02345223  0.22100538    -0.04000
C569        C  0.72489046  0.10853033  0.88831383    -0.11400
C570        C  0.72528659  0.13404710  0.86513784     0.04100
C571        C  0.71627515  0.13076521  0.83443731    -0.11900
C572        C  0.70677435  0.10232126  0.82607827     0.18900
C573        C  0.70681213  0.07651569  0.84865236    -0.09000
C574        C  0.71584784  0.07968758  0.87936757    -0.01900
H575        H  0.71648170  0.15066659  0.81712689     0.05500
C576        C  0.69626452  0.10043917  0.79432637     0.20900
H577        H  0.71525714  0.05990443  0.89678177     0.10600
C578        C  0.70492681  0.08746784  0.76627951    -0.15300
C579        C  0.69523980  0.08516939  0.73606715     0.03600
C580        C  0.67637161  0.09589961  0.73351755    -0.10600
C581        C  0.66777534  0.10871165  0.76190070    -0.00700
C582        C  0.67757145  0.11123354  0.79190201    -0.05800
H583        H  0.71927710  0.07892670  0.76796153     0.06600
H584        H  0.65343305  0.11735731  0.76068652     0.10000
Br585      Br  0.69400267  0.03700876  0.83891917    -0.05500
Br586      Br  0.73836623  0.17361143  0.87354893    -0.02500
Br587      Br  0.70843383  0.06570062  0.69993837     0.00400
Br588      Br  0.66492800  0.12976344  0.82907313    -0.04000
C589        C  0.67432034  0.38691796  0.24455406    -0.11400
C590        C  0.68704845  0.36232268  0.25356937     0.04100
C591        C  0.69651671  0.36391405  0.28389795    -0.11900
C592        C  0.69337061  0.38947123  0.30581888     0.18900
C593        C  0.68074479  0.41409359  0.29681414    -0.09000
C594        C  0.67129838  0.41258396  0.26648676    -0.01900
H595        H  0.70602266  0.34467132  0.29082783     0.05500
C596        C  0.70305850  0.38934939  0.33823431     0.20900
H597        H  0.66161016  0.43167773  0.25991776     0.10600
C598        C  0.72264360  0.39323303  0.33950600    -0.15300
C599        C  0.73243169  0.39084730  0.36949832     0.03600
C600        C  0.72252786  0.38506713  0.39902159    -0.10600
C601        C  0.70288325  0.38153457  0.39764780    -0.00700
C602        C  0.69319017  0.38307719  0.36761634    -0.05800
H603        H  0.73040875  0.39718019  0.31687598     0.06600
H604        H  0.69509282  0.37640882  0.42000460     0.10000
Br605      Br  0.67612540  0.45043987  0.32486971    -0.05500
Br606      Br  0.69081833  0.32459403  0.22702848    -0.02500
Br607      Br  0.75935124  0.39226123  0.36814059     0.00400
Br608      Br  0.66677019  0.37362734  0.36765662    -0.04000
C609        C  0.55569426  0.36377725  0.86587333    -0.11400
C610        C  0.56237579  0.39412829  0.87624958     0.04100
C611        C  0.57214105  0.39680865  0.90612561    -0.11900
C612        C  0.57596667  0.36946970  0.92535758     0.18900
C613        C  0.57023773  0.33894891  0.91403838    -0.09000
C614        C  0.56000853  0.33636799  0.88473007    -0.01900
H615        H  0.57672435  0.42033776  0.91446629     0.05500
C616        C  0.58486367  0.37336361  0.95806114     0.20900
H617        H  0.55529397  0.31280466  0.87670845     0.10600
C618        C  0.57461054  0.36460122  0.98616972    -0.15300
C619        C  0.58250114  0.36723500  0.01762417     0.03600
C620        C  0.60078527  0.37975107  0.02136654    -0.10600
C621        C  0.61085991  0.38943184  0.99333948    -0.00700
C622        C  0.60314324  0.38590207  0.96174539    -0.05800
H623        H  0.56043615  0.35538482  0.98355483     0.06600
H624        H  0.62504647  0.39858223  0.99595149     0.10000
Br625      Br  0.57651760  0.30001897  0.93718095    -0.05500
Br626      Br  0.55962660  0.43222041  0.84975343    -0.02500
Br627      Br  0.56744791  0.35428813  0.05454571     0.00400
Br628      Br  0.61855727  0.39636110  0.92446229    -0.04000
C629        C  0.67275189  0.28462010  0.08588507    -0.11400
C630        C  0.66391476  0.26118101  0.06549674     0.04100
C631        C  0.67470394  0.23715028  0.05050320    -0.11900
C632        C  0.69422882  0.23598229  0.05471252     0.18900
C633        C  0.70308851  0.25913203  0.07469681    -0.09000
C634        C  0.69238765  0.28288824  0.09026622    -0.01900
H635        H  0.66786376  0.21966302  0.03464055     0.05500
C636        C  0.70511424  0.21156118  0.03634606     0.20900
H637        H  0.69961230  0.30039749  0.10553151     0.10600
C638        C  0.71621618  0.22137824  0.00962391    -0.15300
C639        C  0.72561989  0.19877207  0.99013988     0.03600
C640        C  0.72374423  0.16564504  0.99698934    -0.10600
C641        C  0.71314641  0.15592736  0.02443610    -0.00700
C642        C  0.70385095  0.17856783  0.04405167    -0.05800
H643        H  0.71741782  0.24676327  0.00372858     0.06600
H644        H  0.71176862  0.13054450  0.03019870     0.10000
Br645      Br  0.72979392  0.25932812  0.08135683    -0.05500
Br646      Br  0.63751971  0.26080423  0.05490477    -0.02500
Br647      Br  0.74142171  0.21445830  0.95545410     0.00400
Br648      Br  0.68971512  0.16341741  0.08119539    -0.04000
C649        C  0.53137864  0.18863118  0.26929478    -0.11400
C650        C  0.54635365  0.18203432  0.24778199     0.04100
C651        C  0.55580682  0.20732299  0.23239769    -0.11900
C652        C  0.55055141  0.23935770  0.23814416     0.18900
C653        C  0.53484382  0.24592978  0.25812959    -0.09000
C654        C  0.52546814  0.22054287  0.27384458    -0.01900
H655        H  0.56768283  0.20203772  0.21658852     0.05500
C656        C  0.56190944  0.26516099  0.22302550     0.20900
H657        H  0.51394804  0.22576011  0.29045913     0.10600
C658        C  0.56175875  0.26827128  0.18864443    -0.15300
C659        C  0.57385588  0.28968995  0.17275695     0.03600
C660        C  0.58669510  0.30838350  0.19148070    -0.10600
C661        C  0.58636859  0.30590313  0.22612456    -0.00700
C662        C  0.57420009  0.28439340  0.24192065    -0.05800
H663        H  0.55229583  0.25356936  0.17403299     0.06600
H664        H  0.59603103  0.31996044  0.24098848     0.10000
Br665      Br  0.52586940  0.28901900  0.26461895    -0.05500
Br666      Br  0.55487714  0.13887124  0.24003489    -0.02500
Br667      Br  0.57143472  0.29249262  0.12556644     0.00400
Br668      Br  0.57574161  0.28069779  0.28911055    -0.04000
C669        C  0.46318329  0.62022326  0.08828492    -0.11400
C670        C  0.47079818  0.62954183  0.05775268     0.04100
C671        C  0.46025306  0.62547332  0.02891596    -0.11900
C672        C  0.44199739  0.61271461  0.03014295     0.18900
C673        C  0.43444107  0.60319395  0.06073869    -0.09000
C674        C  0.44505617  0.60707772  0.08954623    -0.01900
H675        H  0.46617207  0.63279868  0.00547293     0.05500
C676        C  0.43109154  0.60992249  0.99922243     0.20900
H677        H  0.43908803  0.60017349  0.11308747     0.10600
C678        C  0.42618331  0.57936471  0.98741857    -0.15300
C679        C  0.41652471  0.57570795  0.95751499     0.03600
C680        C  0.41195817  0.60325910  0.93833604    -0.10600
C681        C  0.41673229  0.63388086  0.95076785    -0.00700
C682        C  0.42608253  0.63735625  0.98087809    -0.05800
H683        H  0.43002544  0.55817940  0.00150948     0.06600
H684        H  0.41314901  0.65546725  0.93712117     0.10000
Br685      Br  0.40946069  0.58621524  0.06469794    -0.05500
Br686      Br  0.49501580  0.64961006  0.05453390    -0.02500
Br687      Br  0.41044129  0.53222616  0.94513409     0.00400
Br688      Br  0.43120216  0.68020164  0.99632240    -0.04000
C689        C  0.41862620  0.80574846  0.26774299    -0.11400
C690        C  0.41715441  0.79865406  0.23374149     0.04100
C691        C  0.42913226  0.77577120  0.21974888    -0.11900
C692        C  0.44227164  0.75922870  0.23925210     0.18900
C693        C  0.44384640  0.76638226  0.27304221    -0.09000
C694        C  0.43215187  0.78962830  0.28697160    -0.01900
H695        H  0.42755393  0.76963709  0.19384856     0.05500
C696        C  0.45259837  0.73208426  0.22467167     0.20900
H697        H  0.43336802  0.79465465  0.31317049     0.10600
C698        C  0.46862942  0.73794132  0.20556007    -0.15300
C699        C  0.47755172  0.71264486  0.18904010     0.03600
C700        C  0.47055416  0.68108191  0.19205782    -0.10600
C701        C  0.45477676  0.67520339  0.21177218    -0.00700
C702        C  0.44570158  0.70049043  0.22785892    -0.05800
H703        H  0.47379103  0.76230831  0.20261464     0.06600
H704        H  0.44898293  0.65112232  0.21332256     0.10000
Br705      Br  0.46107869  0.74379434  0.30128440    -0.05500
Br706      Br  0.39765716  0.81623463  0.20617455    -0.02500
Br707      Br  0.49823788  0.72243377  0.16049100     0.00400
Br708      Br  0.42307008  0.69133686  0.25178128    -0.04000
C709        C  0.51435861  0.58965259  0.16609485    -0.11400
C710        C  0.53302560  0.60091881  0.16655503     0.04100
C711        C  0.54786567  0.57898290  0.16949162    -0.11900
C712        C  0.54439935  0.54575605  0.17150539     0.18900
C713        C  0.52570247  0.53466181  0.17276120    -0.09000
C714        C  0.51087696  0.55660255  0.16998951    -0.01900
H715        H  0.56220769  0.58770126  0.16843179     0.05500
C716        C  0.56032085  0.52303347  0.16850111     0.20900
H717        H  0.49655314  0.54772228  0.16953654     0.10600
C718        C  0.56542708  0.50343569  0.19522046    -0.15300
C719        C  0.57990745  0.48070280  0.19235533     0.03600
C720        C  0.58986228  0.47765668  0.16212588    -0.10600
C721        C  0.58477555  0.49801438  0.13571540    -0.00700
C722        C  0.57013566  0.52019567  0.13858674    -0.05800
H723        H  0.55786256  0.50548212  0.21828753     0.06600
H724        H  0.59184339  0.49618437  0.11215241     0.10000
Br725      Br  0.51967893  0.48968877  0.17540469    -0.05500
Br726      Br  0.53902890  0.64544731  0.15967701    -0.02500
Br727      Br  0.58454552  0.45454057  0.23072465     0.00400
Br728      Br  0.56326580  0.54466820  0.10012428    -0.04000
C729        C  0.32891059  0.51816317  0.88142833    -0.11400
C730        C  0.33262524  0.50418230  0.91268302     0.04100
C731        C  0.31910395  0.48458231  0.92767749    -0.11900
C732        C  0.30186979  0.47829929  0.91212623     0.18900
C733        C  0.29817743  0.49189075  0.88093230    -0.09000
C734        C  0.31156355  0.51177700  0.86599730    -0.01900
H735        H  0.32194475  0.47447061  0.95189246     0.05500
C736        C  0.28769113  0.45830141  0.92920514     0.20900
H737        H  0.30845556  0.52202760  0.84197219     0.10600
C738        C  0.27101539  0.47269832  0.94020427    -0.15300
C739        C  0.25707360  0.45444436  0.95571021     0.03600
C740        C  0.25987408  0.42121659  0.96099509    -0.10600
C741        C  0.27662646  0.40686963  0.95011857    -0.00700
C742        C  0.29047929  0.42510340  0.93431880    -0.05800
H743        H  0.26870352  0.49819776  0.93613080     0.06600
H744        H  0.27886059  0.38128408  0.95369802     0.10000
Br745      Br  0.27529213  0.48304136  0.85737575    -0.05500
Br746      Br  0.35521010  0.51237545  0.93740310    -0.02500
Br747      Br  0.23393963  0.47557795  0.96672599     0.00400
Br748      Br  0.31255220  0.40342444  0.91876349    -0.04000
C749        C  0.17274010  0.20276425  0.85967987    -0.11400
C750        C  0.16244394  0.23035386  0.86960666     0.04100
C751        C  0.17149995  0.25517087  0.88663242    -0.11900
C752        C  0.19082309  0.25390056  0.89313990     0.18900
C753        C  0.20130574  0.22743594  0.88166335    -0.09000
C754        C  0.19225420  0.20217821  0.86521412    -0.01900
H755        H  0.16335062  0.27559175  0.89511591     0.05500
C756        C  0.19956439  0.27985100  0.91296124     0.20900
H757        H  0.20049233  0.18155478  0.85760319     0.10600
C758        C  0.20744610  0.27233599  0.94384247    -0.15300
C759        C  0.21551325  0.29627552  0.96360625     0.03600
C760        C  0.21562536  0.32850648  0.95259727    -0.10600
C761        C  0.20761757  0.33600960  0.92181794    -0.00700
C762        C  0.19955965  0.31208774  0.90208982    -0.05800
H763        H  0.20733955  0.24765499  0.95258216     0.06600
H764        H  0.20754939  0.36071239  0.91315459     0.10000
Br765      Br  0.22802539  0.22474120  0.88760642    -0.05500
Br766      Br  0.13617133  0.23675178  0.86018360    -0.02500
Br767      Br  0.22695050  0.28327910  0.00447250     0.00400
Br768      Br  0.18915902  0.32466036  0.86022769    -0.04000
C769        C  0.19164334  0.02841152  0.87370090    -0.11400
C770        C  0.20849599  0.04087372  0.88711924     0.04100
C771        C  0.22125539  0.02018050  0.90291008    -0.11900
C772        C  0.21745535  0.98713464  0.90608048     0.18900
C773        C  0.20044300  0.97485763  0.89338716    -0.09000
C774        C  0.18783827  0.99537154  0.87725472    -0.01900
H775        H  0.23404657  0.03002436  0.91342018     0.05500
C776        C  0.23109947  0.96601699  0.92347259     0.20900
H777        H  0.17491012  0.98535977  0.86744547     0.10600
C778        C  0.22570417  0.95061413  0.95280930    -0.15300
C779        C  0.23787185  0.92936202  0.96909883     0.03600
C780        C  0.25612321  0.92400619  0.95665735    -0.10600
C781        C  0.26158976  0.93981920  0.92753329    -0.00700
C782        C  0.24924479  0.96049895  0.91086982    -0.05800
H783        H  0.21176559  0.95454664  0.96262940     0.06600
H784        H  0.27547873  0.93582399  0.91751986     0.10000
Br785      Br  0.19372598  0.93021021  0.89708321    -0.05500
Br786      Br  0.21408790  0.08610150  0.88753704    -0.02500
Br787      Br  0.22810539  0.90632564  0.00642457     0.00400
Br788      Br  0.25750796  0.97924818  0.87010486    -0.04000
C789        C  0.02146072  0.89091281  0.79331278    -0.11400
C790        C  0.03918087  0.87577322  0.79521940     0.04100
C791        C  0.05551156  0.89397828  0.79077679    -0.11900
C792        C  0.05439928  0.92714905  0.78466500     0.18900
C793        C  0.03669751  0.94188883  0.78112787    -0.09000
C794        C  0.02040196  0.92374220  0.78547885    -0.01900
H795        H  0.06911577  0.88264836  0.79391947     0.05500
C796        C  0.07146143  0.94705537  0.78698615     0.20900
H797        H  0.00684053  0.93554045  0.78397139     0.10600
C798        C  0.07869694  0.96185024  0.75865368    -0.15300
C799        C  0.09261110  0.98558268  0.76119835     0.03600
C800        C  0.09937372  0.99484786  0.79271977    -0.10600
C801        C  0.09302449  0.97799023  0.82069256    -0.00700
C802        C  0.07915001  0.95446329  0.81806240    -0.05800
H803        H  0.07294319  0.95583644  0.73463282     0.06600
H804        H  0.09801185  0.98439270  0.84512705     0.10000
Br805      Br  0.03409549  0.98727913  0.77333345    -0.05500
Br806      Br  0.04196322  0.83131504  0.80733434    -0.02500
Br807      Br  0.10155460  0.00412631  0.72073940     0.00400
Br808      Br  0.06984370  0.93545554  0.85806339    -0.04000
C809        C  0.68224208  0.01609706  0.56223210    -0.11400
C810        C  0.70096862  0.00998796  0.57245401     0.04100
C811        C  0.71262119  0.99052126  0.55320587    -0.11900
C812        C  0.70615592  0.97679898  0.52367464     0.18900
C813        C  0.68745321  0.98220853  0.51369325    -0.09000
C814        C  0.67571053  0.00169777  0.53285996    -0.01900
H815        H  0.72683608  0.98577308  0.56150320     0.05500
C816        C  0.71901321  0.95568765  0.50479795     0.20900
H817        H  0.66150186  0.00608296  0.52431996     0.10600
C818        C  0.71489563  0.92277669  0.50216858    -0.15300
C819        C  0.72765429  0.90146100  0.48770352     0.03600
C820        C  0.74516465  0.91287474  0.47620593    -0.10600
C821        C  0.74889237  0.94607133  0.47750106    -0.00700
C822        C  0.73598098  0.96743900  0.49155830    -0.05800
H823        H  0.70183494  0.91350804  0.51204123     0.06600
H824        H  0.76218952  0.95530068  0.46860996     0.10000
Br825      Br  0.67750032  0.96446039  0.47352786    -0.05500
Br826      Br  0.71159830  0.02592435  0.61295953    -0.02500
Br827      Br  0.72016593  0.85721795  0.48368052     0.00400
Br828      Br  0.74215400  0.01242994  0.49223211    -0.04000
C829        C  0.78790683  0.82061353  0.50206512    -0.11400
C830        C  0.79384537  0.82816705  0.53447988     0.04100
C831        C  0.80192716  0.80429228  0.55434079    -0.11900
C832        C  0.80443366  0.77295577  0.54233727     0.18900
C833        C  0.79810082  0.76516754  0.51036177    -0.09000
C834        C  0.78987578  0.78889791  0.49057077    -0.01900
H835        H  0.80689358  0.81043892  0.57885306     0.05500
C836        C  0.81473751  0.74919175  0.56258620     0.20900
H837        H  0.78542212  0.78276795  0.46574977     0.10600
C838        C  0.80503944  0.72320131  0.57648207    -0.15300
C839        C  0.81462959  0.69880266  0.59347171     0.03600
C840        C  0.83450153  0.70004935  0.59639855    -0.10600
C841        C  0.84395687  0.72716308  0.58362040    -0.00700
C842        C  0.83427902  0.75153608  0.56698091    -0.05800
H843        H  0.78993802  0.72160811  0.57351201     0.06600
H844        H  0.85907604  0.72920782  0.58577937     0.10000
Br845      Br  0.80150077  0.72303559  0.49187404    -0.05500
Br846      Br  0.79298818  0.87110693  0.55198131    -0.02500
Br847      Br  0.79938520  0.66461486  0.61083660     0.00400
Br848      Br  0.84853852  0.78672277  0.54916127    -0.04000
C849        C  0.97550510  0.80153338  0.77610018    -0.11400
C850        C  0.97201653  0.77176461  0.79164486     0.04100
C851        C  0.96320252  0.74707886  0.77404862    -0.11900
C852        C  0.95815911  0.75133056  0.74080723     0.18900
C853        C  0.96277204  0.78041938  0.72474873    -0.09000
C854        C  0.97136279  0.80521812  0.74245971    -0.01900
H855        H  0.95972227  0.72487622  0.78665780     0.05500
C856        C  0.94621530  0.72688466  0.72457371     0.20900
H857        H  0.97416179  0.82791065  0.73023729     0.10600
C858        C  0.92832571  0.73621114  0.71355818    -0.15300
C859        C  0.91631438  0.71423167  0.69836840     0.03600
C860        C  0.92187558  0.68184460  0.69502836    -0.10600
C861        C  0.93952580  0.67212761  0.70696887    -0.00700
C862        C  0.95181461  0.69447017  0.72132541    -0.05800
H863        H  0.92366853  0.76084674  0.71680340     0.06600
H864        H  0.94397997  0.64732892  0.70420363     0.10000
Br865      Br  0.95728822  0.78788686  0.67891085    -0.05500
Br866      Br  0.97916191  0.76348885  0.83663110    -0.02500
Br867      Br  0.89220535  0.72968339  0.68385033     0.00400
Br868      Br  0.97632534  0.67990275  0.73447687    -0.04000
C869        C  0.82671002  0.52723377  0.57804571    -0.11400
C870        C  0.80966872  0.53897205  0.56464419     0.04100
C871        C  0.79747030  0.51800647  0.54795973    -0.11900
C872        C  0.80193196  0.48530813  0.54420451     0.18900
C873        C  0.81902231  0.47367208  0.55720982    -0.09000
C874        C  0.83124122  0.49458255  0.57381197    -0.01900
H875        H  0.78454378  0.52731540  0.53748859     0.05500
C876        C  0.78876847  0.46377807  0.52625681     0.20900
H877        H  0.84427603  0.48517930  0.58377471     0.10600
C878        C  0.79424897  0.45035343  0.49597629    -0.15300
C879        C  0.78255603  0.42868275  0.47917625     0.03600
C880        C  0.76489746  0.42047848  0.49238677    -0.10600
C881        C  0.75930839  0.43426026  0.52245442    -0.00700
C882        C  0.77104659  0.45579361  0.53934892    -0.05800
H883        H  0.80787325  0.45622284  0.48575961     0.06600
H884        H  0.74584591  0.42789819  0.53302722     0.10000
Br885      Br  0.82606668  0.42919828  0.55384281    -0.05500
Br886      Br  0.80293903  0.58370806  0.56591011    -0.02500
Br887      Br  0.79198628  0.40904625  0.43975182     0.00400
Br888      Br  0.76267655  0.47237209  0.58099681    -0.04000
C889        C  0.03898909  0.29903062  0.68464144    -0.11400
C890        C  0.05765753  0.30022391  0.69639791     0.04100
C891        C  0.06501200  0.27429644  0.71413167    -0.11900
C892        C  0.05408009  0.24694535  0.72036038     0.18900
C893        C  0.03518355  0.24622335  0.70997342    -0.09000
C894        C  0.02774304  0.27227869  0.69224096    -0.01900
H895        H  0.07951602  0.27512344  0.72247271     0.05500
C896        C  0.06313892  0.21928114  0.73675418     0.20900
H897        H  0.01338144  0.27111849  0.68322791     0.10600
C898        C  0.06537026  0.21969581  0.77105493    -0.15300
C899        C  0.07654453  0.19673335  0.78704709     0.03600
C900        C  0.08595086  0.17275914  0.76833594    -0.10600
C901        C  0.08281233  0.17163952  0.73400415    -0.00700
C902        C  0.07163228  0.19471314  0.71821947    -0.05800
H903        H  0.05882053  0.23863167  0.78536391     0.06600
H904        H  0.08973482  0.15362323  0.71903652     0.10000
Br905      Br  0.01937073  0.20984219  0.71863619    -0.05500
Br906      Br  0.07371808  0.33660363  0.68869593    -0.02500
Br907      Br  0.07814728  0.20029830  0.83433101     0.00400
Br908      Br  0.06937146  0.19311617  0.67102159    -0.04000
C909        C  0.99523142  0.38954367  0.65480066    -0.11400
C910        C  0.97642978  0.37984794  0.65058504     0.04100
C911        C  0.96200319  0.40261016  0.65282981    -0.11900
C912        C  0.96614872  0.43511731  0.65877905     0.18900
C913        C  0.98492292  0.44469901  0.66361091    -0.09000
C914        C  0.99931545  0.42189433  0.66168978    -0.01900
H915        H  0.94759617  0.39521969  0.64859353     0.05500
C916        C  0.95093986  0.45913896  0.65702911     0.20900
H917        H  0.01380091  0.42962250  0.66419246     0.10600
C918        C  0.94301270  0.47102059  0.68616284    -0.15300
C919        C  0.92896366  0.49464077  0.68516633     0.03600
C920        C  0.92257530  0.50666585  0.65435228    -0.10600
C921        C  0.93052669  0.49416971  0.62523391    -0.00700
C922        C  0.94461818  0.47081190  0.62640221    -0.05800
H923        H  0.94787317  0.46197387  0.70979785     0.06600
H924        H  0.92613092  0.50315360  0.60130487     0.10000
Br925      Br  0.99158208  0.48899985  0.67026943    -0.05500
Br926      Br  0.97004714  0.33648494  0.63870556    -0.02500
Br927      Br  0.91897598  0.50841607  0.72681565     0.00400
Br928      Br  0.95541720  0.45643929  0.58559460    -0.04000
C929        C  0.32275367  0.95671719  0.38461990    -0.11400
C930        C  0.32636734  0.98990431  0.38903134     0.04100
C931        C  0.31331875  0.00907731  0.40562220    -0.11900
C932        C  0.29682722  0.99570827  0.41861032     0.18900
C933        C  0.29342659  0.96250923  0.41488779    -0.09000
C934        C  0.30623092  0.94341601  0.39767420    -0.01900
H935        H  0.31588836  0.03469297  0.40792838     0.05500
C936        C  0.28270619  0.01725050  0.43353692     0.20900
H937        H  0.30344847  0.91789004  0.39509850     0.10600
C938        C  0.26520721  0.02063595  0.41784895    -0.15300
C939        C  0.25178738  0.04205492  0.42993607     0.03600
C940        C  0.25592337  0.06090145  0.45791369    -0.10600
C941        C  0.27325411  0.05711580  0.47404564    -0.00700
C942        C  0.28666259  0.03552462  0.46205199    -0.05800
H943        H  0.26203686  0.00668439  0.39590430     0.06600
H944        H  0.27645485  0.07137338  0.49576894     0.10000
Br945      Br  0.27190107  0.94190138  0.43397907    -0.05500
Br946      Br  0.34821719  0.01098148  0.37149197    -0.02500
Br947      Br  0.22781694  0.04389124  0.40811358     0.00400
Br948      Br  0.30995007  0.03150261  0.48574027    -0.04000
C949        C  0.21312238  0.10084630  0.54622119    -0.11400
C950        C  0.20159425  0.07432984  0.55426261     0.04100
C951        C  0.19332645  0.07249552  0.58554501    -0.11900
C952        C  0.19658015  0.09660374  0.60910685     0.18900
C953        C  0.20834536  0.12269330  0.60129613    -0.09000
C954        C  0.21637295  0.12482129  0.56994505    -0.01900
H955        H  0.18424282  0.05237763  0.59145079     0.05500
C956        C  0.18739182  0.09472959  0.64161987     0.20900
H957        H  0.22528111  0.14518389  0.56408459     0.10600
C958        C  0.19735210  0.08205857  0.66857548    -0.15300
C959        C  0.18950318  0.08200757  0.70023307     0.03600
C960        C  0.17132946  0.09477064  0.70513768    -0.10600
C961        C  0.16127328  0.10677770  0.67783422    -0.00700
C962        C  0.16920287  0.10703687  0.64633728    -0.05800
H963        H  0.21134030  0.07245604  0.66498272     0.06600
H964        H  0.14732457  0.11669322  0.68111597     0.10000
Br965      Br  0.21368481  0.15599235  0.63276204    -0.05500
Br966      Br  0.19604726  0.04086974  0.52301213    -0.02500
Br967      Br  0.20390809  0.06279637  0.73524928     0.00400
Br968      Br  0.15498662  0.12554597  0.61072870    -0.04000
C969        C  0.21711618  0.39459239  0.05526189    -0.11400
C970        C  0.22152890  0.37432327  0.08204582     0.04100
C971        C  0.21276286  0.37895393  0.11247073    -0.11900
C972        C  0.19951577  0.40355772  0.11660451     0.18900
C973        C  0.19565913  0.42473361  0.09026733    -0.09000
C974        C  0.20448777  0.42015347  0.05977747    -0.01900
H975        H  0.21590404  0.36276555  0.13275046     0.05500
C976        C  0.18919613  0.40538629  0.14805036     0.20900
H977        H  0.20108529  0.43593563  0.03929351     0.10600
C978        C  0.19824470  0.41752468  0.17617100    -0.15300
C979        C  0.18933449  0.41715742  0.20693768     0.03600
C980        C  0.17091359  0.40456048  0.20976888    -0.10600
C981        C  0.16183504  0.39298716  0.18124414    -0.00700
C982        C  0.17089879  0.39292506  0.15072616    -0.05800
H983        H  0.21239191  0.42691751  0.17421906     0.06600
H984        H  0.14787751  0.38271828  0.18285467     0.10000
Br985      Br  0.17819782  0.45963217  0.09483107    -0.05500
Br986      Br  0.23934418  0.33992168  0.07807723    -0.02500
Br987      Br  0.20309804  0.43477885  0.24358325     0.00400
Br988      Br  0.15824949  0.37349788  0.11384098    -0.04000
C989        C  0.09703630  0.37320999  0.42920910    -0.11400
C990        C  0.08378310  0.39674054  0.43894276     0.04100
C991        C  0.07341906  0.39225111  0.46782165    -0.11900
C992        C  0.07584317  0.36455186  0.48707760     0.18900
C993        C  0.08839358  0.34047472  0.47673026    -0.09000
C994        C  0.09893119  0.34500893  0.44812600    -0.01900
H995        H  0.06343214  0.41048974  0.47537343     0.05500
C996        C  0.06526942  0.36136998  0.51805494     0.20900
H997        H  0.10875351  0.32643521  0.44079454     0.10600
C998        C  0.04582961  0.35594024  0.51679938    -0.15300
C999        C  0.03547451  0.35248910  0.54587049     0.03600
C1000       C  0.04469676  0.35445718  0.57669688    -0.10600
C1001       C  0.06410018  0.36036023  0.57780117    -0.00700
C1002       C  0.07436946  0.36410910  0.54880909    -0.05800
H1003       H  0.03876745  0.35401283  0.49314973     0.06600
H1004       H  0.07124559  0.36241166  0.60136867     0.10000
Br1005     Br  0.09130657  0.30074207  0.50044720    -0.05500
Br1006     Br  0.07817819  0.43446986  0.41317969    -0.02500
Br1007     Br  0.00907088  0.34359995  0.54199113     0.00400
Br1008     Br  0.10064843  0.37399498  0.55246248    -0.04000
C1009       C  0.21915830  0.16159585  0.44027187    -0.11400
C1010       C  0.20026691  0.16589676  0.43077727     0.04100
C1011       C  0.19515985  0.19250268  0.41168143    -0.11900
C1012       C  0.20868687  0.21472932  0.40095363     0.18900
C1013       C  0.22770566  0.20975814  0.40919621    -0.09000
C1014       C  0.23281928  0.18333308  0.42882512    -0.01900
H1015       H  0.18052152  0.19595552  0.40523527     0.05500
C1016       C  0.20218006  0.24363795  0.38286567     0.20900
H1017       H  0.24743606  0.17987654  0.43539629     0.10600
C1018       C  0.20336069  0.27382458  0.39831643    -0.15300
C1019       C  0.19393619  0.30050982  0.38516858     0.03600
C1020       C  0.18278640  0.29690756  0.35663459    -0.10600
C1021       C  0.18248753  0.26726380  0.34012506    -0.00700
C1022       C  0.19238016  0.24084320  0.35271035    -0.05800
H1023       H  0.21084771  0.27625772  0.42153594     0.06600
H1024       H  0.17419994  0.26448766  0.31779278     0.10000
Br1025     Br  0.24711831  0.23775278  0.39329657    -0.05500
Br1026     Br  0.18104814  0.13523672  0.44164390    -0.02500
Br1027     Br  0.19531618  0.34064679  0.40850311     0.00400
Br1028     Br  0.19203449  0.20131098  0.32821593    -0.04000
C1029       C  0.24047290  0.56895028  0.47694235    -0.11400
C1030       C  0.22384042  0.58178615  0.46314307     0.04100
C1031       C  0.21101156  0.56134623  0.44753547    -0.11900
C1032       C  0.21434642  0.52814652  0.44598431     0.18900
C1033       C  0.23029237  0.51507578  0.46163681    -0.09000
C1034       C  0.24324075  0.53548907  0.47689123    -0.01900
H1035       H  0.19862310  0.57144760  0.43584350     0.05500
C1036       C  0.20204245  0.50796740  0.42535934     0.20900
H1037       H  0.25585519  0.52528424  0.48770625     0.10600
C1038       C  0.20915685  0.49593438  0.39563900    -0.15300
C1039       C  0.19808038  0.47683407  0.37496358     0.03600
C1040       C  0.17948001  0.46907077  0.38431859    -0.10600
C1041       C  0.17229325  0.48201503  0.41383265    -0.00700
C1042       C  0.18336513  0.50146919  0.43417430    -0.05800
H1043       H  0.22339483  0.50172900  0.38837530     0.06600
H1044       H  0.15809055  0.47656971  0.42153835     0.10000
Br1045     Br  0.23506399  0.46959810  0.46237249    -0.05500
Br1046     Br  0.21775477  0.62677172  0.46540274    -0.02500
Br1047     Br  0.20916005  0.46396419  0.33384642     0.00400
Br1048     Br  0.17254727  0.51784200  0.47410437    -0.04000
C1049       C  0.96242813  0.62820332  0.37596442    -0.11400
C1050       C  0.96914388  0.63895992  0.40674610     0.04100
C1051       C  0.95807820  0.63524604  0.43479376    -0.11900
C1052       C  0.94028747  0.62102311  0.43257039     0.18900
C1053       C  0.93341540  0.61051381  0.40179525    -0.09000
C1054       C  0.94452853  0.61418229  0.37362899    -0.01900
H1055       H  0.96327916  0.64372195  0.45840273     0.05500
C1056       C  0.92909573  0.61816895  0.46278668     0.20900
H1057       H  0.93918761  0.60633335  0.34989266     0.10600
C1058       C  0.92082513  0.64586643  0.47599587    -0.15300
C1059       C  0.91115065  0.64462018  0.50589857     0.03600
C1060       C  0.90995057  0.61511769  0.52327498    -0.10600
C1061       C  0.91805458  0.58734746  0.50953298    -0.00700
C1062       C  0.92759459  0.58870364  0.47957316    -0.05800
H1063       H  0.92193081  0.66857380  0.46292205     0.06600
H1064       H  0.91730787  0.56452161  0.52244878     0.10000
Br1065     Br  0.90883978  0.59197252  0.39716663    -0.05500
Br1066     Br  0.99282483  0.66054808  0.41143046    -0.02500
Br1067     Br  0.89924487  0.68368998  0.52037996     0.00400
Br1068     Br  0.93892469  0.55001409  0.46313072    -0.04000
C1069       C  0.01796406  0.60114897  0.30697696    -0.11400
C1070       C  0.03200459  0.59606464  0.33115366     0.04100
C1071       C  0.04618975  0.57347309  0.32561174    -0.11900
C1072       C  0.04676141  0.55566866  0.29622949     0.18900
C1073       C  0.03305537  0.56130485  0.27171387    -0.09000
C1074       C  0.01890583  0.58408473  0.27711780    -0.01900
H1075       H  0.05664049  0.56925522  0.34466020     0.05500
C1076       C  0.06103817  0.52995491  0.29298773     0.20900
H1077       H  0.00817763  0.58763132  0.25840322     0.10600
C1078       C  0.05520633  0.49766008  0.29368599    -0.15300
C1079       C  0.06837966  0.47267270  0.29508295     0.03600
C1080       C  0.08770847  0.47988042  0.29576785    -0.10600
C1081       C  0.09357254  0.51207151  0.29444200    -0.00700
C1082       C  0.08040961  0.53706027  0.29287685    -0.05800
H1083       H  0.04036539  0.49194648  0.29452549     0.06600
H1084       H  0.10841179  0.51778116  0.29521121     0.10000
Br1085     Br  0.03291346  0.53828665  0.23070467    -0.05500
Br1086     Br  0.03277928  0.61940784  0.37199066    -0.02500
Br1087     Br  0.05933616  0.42931928  0.29928290     0.00400
Br1088     Br  0.08954686  0.58048146  0.29095110    -0.04000
C1089       C  0.75713833  0.55303498  0.00255706    -0.11400
C1090       C  0.76040346  0.53677868  0.03263039     0.04100
C1091       C  0.74599648  0.51890225  0.04720243    -0.11900
C1092       C  0.72830712  0.51643136  0.03204734     0.18900
C1093       C  0.72513866  0.53193906  0.00161244    -0.09000
C1094       C  0.73950083  0.55013949  0.98713121    -0.01900
H1095       H  0.74865064  0.50654268  0.07033289     0.05500
C1096       C  0.71361625  0.49663249  0.04795529     0.20900
H1097       H  0.73682221  0.56241176  0.96396394     0.10600
C1098       C  0.69804178  0.51157643  0.06259935    -0.15300
C1099       C  0.68422167  0.49331320  0.07862693     0.03600
C1100       C  0.68607521  0.45948683  0.08054394    -0.10600
C1101       C  0.70174146  0.44474204  0.06588730    -0.00700
C1102       C  0.71531341  0.46294283  0.04944029    -0.05800
H1103       H  0.69672177  0.53754815  0.06174383     0.06600
H1104       H  0.70323213  0.41878805  0.06655204     0.10000
Br1105     Br  0.70164490  0.52798496  0.97858819    -0.05500
Br1106     Br  0.78454953  0.53673616  0.05390328    -0.02500
Br1107     Br  0.66376211  0.51602813  0.09880452     0.00400
Br1108     Br  0.73551934  0.44067531  0.02804185    -0.04000
C1109       C  0.79756196  0.58783439  0.90698412    -0.11400
C1110       C  0.80868590  0.56171169  0.89645766     0.04100
C1111       C  0.81679736  0.56223865  0.86495741    -0.11900
C1112       C  0.81382118  0.58835654  0.84355250     0.18900
C1113       C  0.80201628  0.61369434  0.85349123    -0.09000
C1114       C  0.79412190  0.61339002  0.88504535    -0.01900
H1115       H  0.82578105  0.54255489  0.85737003     0.05500
C1116       C  0.82359662  0.58929777  0.81139647     0.20900
H1117       H  0.78558397  0.63358826  0.89283292     0.10600
C1118       C  0.81386661  0.58046162  0.78268404    -0.15300
C1119       C  0.82266765  0.58132040  0.75181514     0.03600
C1120       C  0.84166725  0.59114782  0.74933292    -0.10600
C1121       C  0.85139342  0.59972612  0.77834650    -0.00700
C1122       C  0.84248357  0.59905665  0.80911629    -0.05800
H1123       H  0.79936043  0.57277712  0.78434176     0.06600
H1124       H  0.86587189  0.60765467  0.77705281     0.10000
Br1125     Br  0.79691474  0.64982370  0.82533354    -0.05500
Br1126     Br  0.81423475  0.52590887  0.92480013    -0.02500
Br1127     Br  0.80811060  0.56719453  0.71448365     0.00400
Br1128     Br  0.85641267  0.61268595  0.84729847    -0.04000
C1129       C  0.84086051  0.88652583  0.23844945    -0.11400
C1130       C  0.82834699  0.86122662  0.24590802     0.04100
C1131       C  0.81974032  0.85993355  0.27694437    -0.11900
C1132       C  0.82318617  0.88375397  0.30086402     0.18900
C1133       C  0.83605401  0.90861343  0.29361265    -0.09000
C1134       C  0.84479604  0.90971186  0.26273160    -0.01900
H1135       H  0.81035920  0.84017090  0.28250704     0.05500
C1136       C  0.81331929  0.88212607  0.33314916     0.20900
H1137       H  0.85454992  0.92904236  0.25750878     0.10600
C1138       C  0.82384382  0.88000224  0.36246400    -0.15300
C1139       C  0.81502396  0.87914582  0.39330107     0.03600
C1140       C  0.79517158  0.87901677  0.39524060    -0.10600
C1141       C  0.78467110  0.88120235  0.36589123    -0.00700
C1142       C  0.79353228  0.88290669  0.33512232    -0.05800
H1143       H  0.83904180  0.87944163  0.36137603     0.06600
H1144       H  0.76946999  0.88117442  0.36684133     0.10000
Br1145     Br  0.84178496  0.94240235  0.32439367    -0.05500
Br1146     Br  0.82351066  0.82659308  0.21562027    -0.02500
Br1147     Br  0.83094474  0.88043056  0.43173647     0.00400
Br1148     Br  0.77788170  0.88726152  0.29667490    -0.04000
C1149       C  0.91483936  0.88946736  0.01697969    -0.11400
C1150       C  0.92349760  0.91784737  0.00498100     0.04100
C1151       C  0.93324165  0.91710034  0.97508267    -0.11900
C1152       C  0.93449147  0.88859854  0.95685797     0.18900
C1153       C  0.92597565  0.86035604  0.96867450    -0.09000
C1154       C  0.91623634  0.86094459  0.99847621    -0.01900
H1155       H  0.94009207  0.93871357  0.96619579     0.05500
C1156       C  0.94561810  0.88801297  0.92641516     0.20900
H1157       H  0.90970120  0.83896235  0.00715476     0.10600
C1158       C  0.96504969  0.88336628  0.92886505    -0.15300
C1159       C  0.97581330  0.87810132  0.90064371     0.03600
C1160       C  0.96705628  0.87776118  0.86932923    -0.10600
C1161       C  0.94766648  0.88382018  0.86689632    -0.00700
C1162       C  0.93693206  0.88900126  0.89522563    -0.05800
H1163       H  0.97170168  0.88232572  0.95294338     0.06600
H1164       H  0.94080406  0.88364711  0.84298072     0.10000
Br1165     Br  0.92773908  0.82028412  0.94525666    -0.05500
Br1166     Br  0.92372787  0.95786471  0.02883379    -0.02500
Br1167     Br  0.00194529  0.86814689  0.90682700     0.00400
Br1168     Br  0.91039507  0.89603747  0.89058063    -0.04000
C1169       C  0.84031438  0.78988166  0.07864348    -0.11400
C1170       C  0.84891583  0.76883805  0.05554056     0.04100
C1171       C  0.83893155  0.74249472  0.04325542    -0.11900
C1172       C  0.82043534  0.73657365  0.05302759     0.18900
C1173       C  0.81164584  0.75755134  0.07531206    -0.09000
C1174       C  0.82156207  0.78394721  0.08792402    -0.01900
H1175       H  0.84564063  0.72643252  0.02583962     0.05500
C1176       C  0.81098012  0.70766628  0.04009077     0.20900
H1177       H  0.81461739  0.79957983  0.10543082     0.10600
C1178       C  0.81623771  0.67748563  0.05259648    -0.15300
C1179       C  0.80944261  0.64918033  0.03823042     0.03600
C1180       C  0.79736430  0.65099618  0.01066386    -0.10600
C1181       C  0.79173371  0.68122750  0.99873577    -0.00700
C1182       C  0.79838323  0.70950422  0.01331733    -0.05800
H1183       H  0.82608001  0.67598885  0.07302245     0.06600
H1184       H  0.78241661  0.68278587  0.97757232     0.10000
Br1185     Br  0.78632809  0.75053826  0.08970849    -0.05500
Br1186     Br  0.87390643  0.77430721  0.03830334    -0.02500
Br1187     Br  0.81808766  0.60890330  0.05574355     0.00400
Br1188     Br  0.79061540  0.74994634  0.99489634    -0.04000
C1189       C  0.92351504  0.80839281  0.18387815    -0.11400
C1190       C  0.91665217  0.77752346  0.19155007     0.04100
C1191       C  0.92829984  0.75543311  0.20758872    -0.11900
C1192       C  0.94678230  0.76368792  0.21619609     0.18900
C1193       C  0.95377780  0.79439177  0.20798128    -0.09000
C1194       C  0.94204649  0.81664750  0.19215123    -0.01900
H1195       H  0.92277132  0.73197053  0.21417051     0.05500
C1196       C  0.95789941  0.74039127  0.23556493     0.20900
H1197       H  0.94742449  0.84032603  0.18603885     0.10600
C1198       C  0.96339673  0.71132443  0.22089075    -0.15300
C1199       C  0.97130039  0.68655347  0.23983679     0.03600
C1200       C  0.97402572  0.69098144  0.27409294    -0.10600
C1201       C  0.96914931  0.72067650  0.28836176    -0.00700
C1202       C  0.96088162  0.74505297  0.26956622    -0.05800
H1203       H  0.96069708  0.70735584  0.19483498     0.06600
H1204       H  0.97097928  0.72437262  0.31468381     0.10000
Br1205     Br  0.97920988  0.80669434  0.21755801    -0.05500
Br1206     Br  0.89110957  0.76527490  0.18260143    -0.02500
Br1207     Br  0.97596777  0.64623258  0.21823619     0.00400
Br1208     Br  0.95208003  0.78284277  0.29204844    -0.04000
C1209       C  0.76435121  0.06858037  0.98443441    -0.11400
C1210       C  0.75994380  0.05246527  0.01420269     0.04100
C1211       C  0.77324596  0.03244769  0.02936445    -0.11900
C1212       C  0.79107365  0.02795903  0.01555132     0.18900
C1213       C  0.79536689  0.04318492  0.98537848    -0.09000
C1214       C  0.78204325  0.06326394  0.97006834    -0.01900
H1215       H  0.76968131  0.02035063  0.05222629     0.05500
C1216       C  0.80463007  0.00661390  0.03289881     0.20900
H1217       H  0.78566592  0.07534269  0.94723936     0.10600
C1218       C  0.80180414  0.97318887  0.03205058    -0.15300
C1219       C  0.81363475  0.95225593  0.04960731     0.03600
C1220       C  0.82835862  0.96476509  0.06922645    -0.10600
C1221       C  0.83134516  0.99822346  0.06963456    -0.00700
C1222       C  0.81964978  0.01910075  0.05172453    -0.05800
H1223       H  0.79044588  0.96331841  0.01729976     0.06600
H1224       H  0.84280419  0.00819753  0.08407051     0.10000
Br1225     Br  0.81915398  0.03705339  0.96417699    -0.05500
Br1226     Br  0.73575088  0.05581781  0.03479376    -0.02500
Br1227     Br  0.81010972  0.90681490  0.04342528     0.00400
Br1228     Br  0.82457612  0.06445406  0.05411637    -0.04000
C1229       C  0.10399351  0.09641573  0.93284265    -0.11400
C1230       C  0.09277595  0.07027584  0.94317209     0.04100
C1231       C  0.08336935  0.07193979  0.97336458    -0.11900
C1232       C  0.08500339  0.09929757  0.99337920     0.18900
C1233       C  0.09642154  0.12508712  0.98344275    -0.09000
C1234       C  0.10575429  0.12356966  0.95329075    -0.01900
H1235       H  0.07438030  0.05226063  0.98088355     0.05500
C1236       C  0.07375351  0.10154828  0.02355617     0.20900
H1237       H  0.11434812  0.14375352  0.94572310     0.10600
C1238       C  0.08223237  0.09531427  0.05415045    -0.15300
C1239       C  0.07215853  0.09954490  0.08333734     0.03600
C1240       C  0.05329240  0.10984590  0.08188003    -0.10600
C1241       C  0.04469689  0.11517896  0.05119278    -0.00700
C1242       C  0.05486350  0.11140190  0.02207828    -0.05800
H1243       H  0.09680056  0.08776380  0.05529549     0.06600
H1244       H  0.03027443  0.12349105  0.04997010     0.10000
Br1245     Br  0.09909121  0.16329494  0.00970198    -0.05500
Br1246     Br  0.08842266  0.03303082  0.91609957    -0.02500
Br1247     Br  0.08469292  0.09092991  0.12449710     0.00400
Br1248     Br  0.04283948  0.12190280  0.98098234    -0.04000
C1249       C  0.09300878  0.30327750  0.26489518    -0.11400
C1250       C  0.08140388  0.28191753  0.28284056     0.04100
C1251       C  0.07179031  0.25745807  0.26624990    -0.11900
C1252       C  0.07352087  0.25397244  0.23206094     0.18900
C1253       C  0.08453472  0.27574818  0.21397808    -0.09000
C1254       C  0.09411189  0.30029576  0.23041363    -0.01900
H1255       H  0.06311773  0.24082536  0.28007780     0.05500
C1256       C  0.06438508  0.22658751  0.21583315     0.20900
H1257       H  0.10293474  0.31644595  0.21628734     0.10600
C1258       C  0.04596970  0.22987601  0.20397258    -0.15300
C1259       C  0.03732807  0.20462044  0.18693197     0.03600
C1260       C  0.04702858  0.17539784  0.18259296    -0.10600
C1261       C  0.06538177  0.17209208  0.19496561    -0.00700
C1262       C  0.07416646  0.19757788  0.21120471    -0.05800
H1263       H  0.03859439  0.25249520  0.20697736     0.06600
H1264       H  0.07310849  0.14996829  0.19093576     0.10000
Br1265     Br  0.08738150  0.27208221  0.16703674    -0.05500
Br1266     Br  0.07745673  0.28538358  0.32961930    -0.02500
Br1267     Br  0.01321585  0.21230792  0.16710701     0.00400
Br1268     Br  0.09983642  0.19247575  0.22502808    -0.04000
C1269       C  0.92106705  0.98523560  0.15864956    -0.11400
C1270       C  0.93132190  0.98829192  0.18864572     0.04100
C1271       C  0.94578767  0.01105409  0.19114722    -0.11900
C1272       C  0.95029706  0.03102892  0.16448740     0.18900
C1273       C  0.93978674  0.02893053  0.13515677    -0.09000
C1274       C  0.92524463  0.00655565  0.13258063    -0.01900
H1275       H  0.95399336  0.01250435  0.21368717     0.05500
C1276       C  0.96740715  0.05097074  0.16598086     0.20900
H1277       H  0.91779494  0.00494087  0.10928506     0.10600
C1278       C  0.98482855  0.03569475  0.16263120    -0.15300
C1279       C  0.00126775  0.05366992  0.15921606     0.03600
C1280       C  0.00035434  0.08761496  0.15861613    -0.10600
C1281       C  0.98304467  0.10289459  0.16426674    -0.00700
C1282       C  0.96660271  0.08475357  0.16810939    -0.05800
H1283       H  0.98555913  0.00964339  0.16169735     0.06600
H1284       H  0.98220349  0.12894334  0.16444988     0.10000
Br1285     Br  0.94587931  0.05399551  0.09678217    -0.05500
Br1286     Br  0.92721584  0.96195152  0.22699273    -0.02500
Br1287     Br  0.02458310  0.03057445  0.15585773     0.00400
Br1288     Br  0.94332253  0.10679269  0.17558903    -0.04000
loop_ 
_geom_bond_atom_site_label_1 
_geom_bond_atom_site_label_2 
_geom_bond_distance 
_geom_bond_site_symmetry_2 
_ccdc_geom_bond_type 
C1            C2   1.405       .  A
C1            C6   1.406       .  A
C1         C1280   1.478       .  S
C2            C3   1.397       .  A
C2            H7   1.084       .  S
C3            C4   1.393       .  A
C3         C1240   1.468       .  S
C4            C5   1.396       .  A
C4            H8   1.085       .  S
C5            C6   1.404       .  A
C5         C1260   1.469       .  S
C6            H9   1.084       .  S
O10          C26   1.271       .  A
O10         Zn16   2.002       .  S
C11        C1220   1.482       .  S
C11          O27   1.273       .  A
C11          O24   1.278       .  A
O12          C25   1.272       .  A
O12         Cd19   2.067       .  S
O13          C31   1.279       .  A
O13         Cd22   2.089       .  S
O14          C28   1.269       .  A
O14         Cd18   2.041       .  S
O15          C26   1.273       .  A
O15         Cd18   2.055       .  S
Zn16         O27   2.008       .  S
Zn16         O29   2.006       .  S
Zn16         O21   1.932       .  S
O17          C28   1.277       .  A
O17         Cd22   2.086       .  S
Cd18         O20   2.053       .  S
Cd18         O21   1.990       .  S
Cd19         O23   2.070       .  S
Cd19         O32   2.062       .  S
Cd19         O21   1.999       .  S
O20          C30   1.271       .  A
O21         Cd22   2.002       .  S
Cd22         O24   2.093       .  S
O23          C30   1.273       .  A
C25        C1269   1.490       .  S
C25          O29   1.274       .  A
C26        C1149   1.477       .  S
C28        C1169   1.486       .  S
C30        C1189   1.464       .  S
C31        C1129   1.479       .  S
C31          O32   1.275       .  A
C33          C34   1.405   1_556  A
C33          C38   1.409       .  A
C33        C1089   1.481   1_556  S
C34          C35   1.398   1_554  A
C34          H39   1.085       .  S
C35          C36   1.399       .  A
C35        C1180   1.473   1_556  S
C36          C37   1.402       .  A
C36          H40   1.083       .  S
C37          C38   1.407       .  A
C37        C1109   1.481       .  S
C38          H41   1.084       .  S
C42          C43   1.403   1_455  A
C42          C47   1.408   1_455  A
C42        C1069   1.480       .  S
C43          C44   1.397       .  A
C43          H48   1.085       .  S
C44          C45   1.395       .  A
C44        C1049   1.468       .  S
C45          C46   1.403       .  A
C45          H49   1.084       .  S
C46          C47   1.407       .  A
C46        C1200   1.482       .  S
C47          H50   1.084   1_655  S
O51          C67   1.272       .  A
O51         Zn57   2.004       .  S
C52        C1040   1.480       .  S
C52          O68   1.273       .  A
C52          O65   1.272       .  A
O53          C66   1.274       .  A
O53         Cd60   2.078       .  S
O54          C72   1.274       .  A
O54         Cd63   2.066       .  S
O55          C69   1.273       .  A
O55         Cd59   2.065       .  S
O56          C67   1.273       .  A
O56         Cd59   2.056       .  S
Zn57         O68   2.000       .  S
Zn57         O70   2.007       .  S
Zn57         O62   1.935       .  S
O58          C69   1.273       .  A
O58         Cd63   2.075       .  S
Cd59         O61   2.048       .  S
Cd59         O62   1.992       .  S
Cd60         O64   2.064       .  S
Cd60         O73   2.072       .  S
Cd60         O62   1.997       .  S
O61          C71   1.271       .  A
O62         Cd63   1.998       .  S
Cd63         O65   2.059       .  S
O64          C71   1.274       .  A
C66        C1080   1.469       .  S
C66          O70   1.272       .  A
C67         C989   1.476       .  S
C69        C1020   1.468       .  S
C71        C1249   1.472       .  S
C72         C980   1.482       .  S
C72          O73   1.277       .  A
C74          C75   1.401       .  A
C74          C79   1.402       .  A
C74         C940   1.472       .  S
C75          C76   1.401       .  A
C75          H80   1.084       .  S
C76          C77   1.404       .  A
C76         C949   1.477       .  S
C77          C78   1.405       .  A
C77          H81   1.083       .  S
C78          C79   1.400       .  A
C78        C1009   1.478       .  S
C79          H82   1.085       .  S
C83          C84   1.405       .  A
C83          C88   1.400       .  A
C83         C909   1.471   1_455  S
C84          C85   1.405       .  A
C84          H89   1.083       .  S
C85          C86   1.401       .  A
C85         C889   1.475       .  S
C86          C87   1.399       .  A
C86          H90   1.086       .  S
C87          C88   1.398       .  A
C87        C1000   1.474       .  S
C88          H91   1.083       .  S
O92         C108   1.274       .  A
O92         Zn98   2.017       .  S
C93        C1060   1.474       .  S
C93         O109   1.273       .  A
C93         O106   1.270       .  A
O94         C107   1.275       .  A
O94        Cd101   2.078       .  S
O95         C113   1.271       .  A
O95        Cd104   2.044       .  S
O96         C110   1.273       .  A
O96        Cd100   2.077       .  S
O97         C108   1.275       .  A
O97        Cd100   2.078       .  S
Zn98        O109   2.004       .  S
Zn98        O111   2.009       .  S
Zn98        O103   1.936       .  S
O99         C110   1.272       .  A
O99        Cd104   2.052       .  S
Cd100       O102   2.071       .  S
Cd100       O103   1.994       .  S
Cd101       O105   2.082       .  S
Cd101       O114   2.078       .  S
Cd101       O103   2.004       .  S
O102        C112   1.276       .  A
O103       Cd104   1.987       .  S
Cd104       O106   2.046       .  S
O105        C112   1.278       .  A
C107        C920   1.487       .  S
C107        O111   1.274       .  A
C108        C869   1.481       .  S
C110        C840   1.491       .  S
C112       C1120   1.485       .  S
C113        C860   1.468       .  S
C113        O114   1.275       .  A
C115        C116   1.409       .  A
C115        C120   1.404       .  A
C115        C820   1.485       .  S
C116        C117   1.409       .  A
C116        H121   1.083       .  S
C117        C118   1.403       .  A
C117       C1140   1.489       .  S
C118        C119   1.401       .  A
C118        H122   1.082       .  S
C119        C120   1.400       .  A
C119        C829   1.481       .  S
C120        H123   1.084       .  S
C124        C125   1.403   1_455  A
C124        C129   1.400   1_455  A
C124        C789   1.473       .  S
C125        C126   1.400       .  A
C125        H130   1.083       .  S
C126        C127   1.399       .  A
C126       C1160   1.475       .  S
C127        C128   1.401       .  A
C127        H131   1.084       .  S
C128        C129   1.401       .  A
C128        C849   1.473       .  S
C129        H132   1.085   1_655  S
O133        C149   1.273       .  A
O133       Zn139   2.001       .  S
C134       C1229   1.470       .  S
C134        O150   1.272       .  A
C134        O147   1.271       .  A
O135        C148   1.273       .  A
O135       Cd142   2.070       .  S
O136        C154   1.270       .  A
O136       Cd145   2.050       .  S
O137        C151   1.279       .  A
O137       Cd141   2.094       .  S
O138        C149   1.277       .  A
O138       Cd141   2.091       .  S
Zn139       O150   2.012       .  S
Zn139       O152   2.001       .  S
Zn139       O144   1.935       .  S
O140        C151   1.269       .  A
O140       Cd145   2.036       .  S
Cd141       O143   2.084       .  S
Cd141       O144   2.008       .  S
Cd142       O146   2.058       .  S
Cd142       O155   2.083       .  S
Cd142       O144   1.999       .  S
O143        C153   1.278       .  A
O144       Cd145   1.982       .  S
Cd145       O147   2.042       .  S
O146        C153   1.275       .  A
C148        C800   1.482   1_545  S
C148        O152   1.273       .  A
C149        C769   1.483       .  S
C151        C749   1.484       .  S
C153        C960   1.478       .  S
C154        C900   1.488       .  S
C154        O155   1.276       .  A
C156        C157   1.405   1_556  A
C156        C161   1.403       .  A
C156        C740   1.480       .  S
C157        C158   1.402       .  A
C157        H162   1.084       .  S
C158        C159   1.402       .  A
C158        C969   1.474       .  S
C159        C160   1.402   1_554  A
C159        H163   1.084       .  S
C160        C161   1.402       .  A
C160        C760   1.479       .  S
C161        H164   1.085       .  S
C165        C166   1.404       .  A
C165        C170   1.406       .  A
C165        C709   1.476       .  S
C166        C167   1.399       .  A
C166        H171   1.083       .  S
C167        C168   1.395       .  A
C167        C669   1.469       .  S
C168        C169   1.398       .  A
C168        H172   1.085       .  S
C169        C170   1.404       .  A
C169        C700   1.469       .  S
C170        H173   1.084       .  S
O174        C190   1.275       .  A
O174       Zn180   2.025       .  S
C175        C620   1.468       .  S
C175        O191   1.274       .  A
C175        O188   1.271       .  A
O176        C189   1.273       .  A
O176       Cd183   2.069       .  S
O177        C195   1.271       .  A
O177       Cd186   2.051       .  S
O178        C192   1.276       .  A
O178       Cd182   2.077       .  S
O179        C190   1.276       .  A
O179       Cd182   2.070       .  S
Zn180       O191   2.021       .  S
Zn180       O193   2.023       .  S
Zn180       O185   1.943       .  S
O181        C192   1.271       .  A
O181       Cd186   2.058       .  S
Cd182       O184   2.081       .  S
Cd182       O185   1.994       .  S
Cd183       O187   2.073       .  S
Cd183       O196   2.079       .  S
Cd183       O185   1.997       .  S
O184        C194   1.277       .  A
O185       Cd186   1.986       .  S
Cd186       O188   2.050       .  S
O187        C194   1.277       .  A
C189        C720   1.494       .  S
C189        O193   1.277       .  A
C190       C1100   1.480       .  S
C192        C629   1.492       .  S
C194        C589   1.479       .  S
C195        C660   1.483       .  S
C195        O196   1.275       .  A
C197        C198   1.412       .  A
C197        C202   1.404       .  A
C197       C1209   1.490       .  S
C198        C199   1.413       .  A
C198        H203   1.084       .  S
C199        C200   1.407       .  A
C199        C569   1.494       .  S
C200        C201   1.403       .  A
C200        H204   1.083       .  S
C201        C202   1.400       .  A
C201        C640   1.481       .  S
C202        H205   1.085   1_556  S
C206        C207   1.404       .  A
C206        C211   1.406       .  A
C206        C549   1.475       .  S
C207        C208   1.398       .  A
C207        H212   1.083       .  S
C208        C209   1.396       .  A
C208        C540   1.471       .  S
C209        C210   1.400       .  A
C209        H213   1.085       .  S
C210        C211   1.405       .  A
C210        C649   1.470       .  S
C211        H214   1.083       .  S
O215        C231   1.271       .  A
O215       Zn221   1.995       .  S
C216        C500   1.474       .  S
C216        O232   1.272       .  A
C216        O229   1.271       .  A
O217        C230   1.277       .  A
O217       Cd224   2.090       .  S
O218        C236   1.273       .  A
O218       Cd227   2.050       .  S
O219        C233   1.277       .  A
O219       Cd223   2.087       .  S
O220        C231   1.276       .  A
O220       Cd223   2.073       .  S
Zn221       O232   2.004       .  S
Zn221       O234   1.994       .  S
Zn221       O226   1.931       .  S
O222        C233   1.271       .  A
O222       Cd227   2.054       .  S
Cd223       O225   2.073       .  S
Cd223       O226   2.002       .  S
Cd224       O228   2.074       .  S
Cd224       O237   2.074       .  S
Cd224       O226   2.004       .  S
O225        C235   1.276       .  A
O226       Cd227   1.988       .  S
Cd227       O229   2.053       .  S
O228        C235   1.277       .  A
C230        C560   1.491       .  S
C230        O234   1.269       .  A
C231        C929   1.475       .  S
C233        C520   1.491       .  S
C235        C480   1.480       .  S
C236        C689   1.474       .  S
C236        O237   1.275       .  A
C238        C239   1.403       .  A
C238        C243   1.403       .  A
C238       C1029   1.475       .  S
C239        C240   1.399       .  A
C239        H244   1.085       .  S
C240        C241   1.402       .  A
C240        C509   1.478       .  S
C241        C242   1.403       .  A
C241        H245   1.084       .  S
C242        C243   1.401       .  A
C242        C449   1.477       .  S
C243        H246   1.084       .  S
C247        C248   1.408       .  A
C247        C252   1.406       .  A
C247        C429   1.484       .  S
C248        C249   1.404       .  A
C248        H253   1.085       .  S
C249        C250   1.398       .  A
C249        C420   1.472       .  S
C250        C251   1.396       .  A
C250        H254   1.084       .  S
C251        C252   1.400       .  A
C251        C609   1.477       .  S
C252        H255   1.084       .  S
O256        C272   1.271       .  A
O256       Zn262   2.009       .  S
C257        C729   1.485       .  S
C257        O273   1.273       .  A
C257        O270   1.275       .  A
O258        C271   1.278       .  A
O258       Cd265   2.080       .  S
O259        C277   1.276       .  A
O259       Cd268   2.063       .  S
O260        C274   1.272       .  A
O260       Cd264   2.049       .  S
O261        C272   1.273       .  A
O261       Cd264   2.053       .  S
Zn262       O273   2.023       .  S
Zn262       O275   2.006       .  S
Zn262       O267   1.939       .  S
O263        C274   1.275       .  A
O263       Cd268   2.077       .  S
Cd264       O266   2.050       .  S
Cd264       O267   1.987       .  S
Cd265       O269   2.102       .  S
Cd265       O278   2.079       .  S
Cd265       O267   2.008       .  S
O266        C276   1.273       .  A
O267       Cd268   1.997       .  S
Cd268       O270   2.074       .  S
O269        C276   1.277       .  A
C271        C440   1.487       .  S
C271        O275   1.273       .  A
C272        C680   1.487       .  S
C274        C369   1.473       .  S
C276        C400   1.496       .  S
C277        C460   1.491       .  S
C277        O278   1.276       .  A
C279        C280   1.405   1_556  A
C279        C284   1.405       .  A
C279        C780   1.485       .  S
C280        C281   1.403       .  A
C280        H285   1.083       .  S
C281        C282   1.403       .  A
C281        C469   1.480       .  S
C282        C283   1.405   1_554  A
C282        H286   1.083       .  S
C283        C284   1.406       .  A
C283        C380   1.490       .  S
C284        H287   1.085       .  S
C288        C289   1.407       .  A
C288        C293   1.405       .  A
C288        C349   1.481       .  S
C289        C290   1.403       .  A
C289        H294   1.083       .  S
C290        C291   1.399       .  A
C290        C389   1.474       .  S
C291        C292   1.398       .  A
C291        H295   1.084       .  S
C292        C293   1.400       .  A
C292        C489   1.476       .  S
C293        H296   1.084       .  S
O297        C313   1.276       .  A
O297       Zn303   2.041       .  S
C298        C809   1.488       .  S
C298        O314   1.277       .  A
C298        O311   1.273       .  A
O299        C312   1.274       .  A
O299       Cd306   2.073       .  S
O300        C318   1.276       .  A
O300       Cd309   2.083       .  S
O301        C315   1.274       .  A
O301       Cd305   2.057       .  S
O302        C313   1.270       .  A
O302       Cd305   2.055       .  S
Zn303       O314   2.029       .  S
Zn303       O316   2.020       .  S
Zn303       O308   1.949       .  S
O304        C315   1.272       .  A
O304       Cd309   2.067       .  S
Cd305       O307   2.050       .  S
Cd305       O308   1.989       .  S
Cd306       O310   2.073       .  S
Cd306       O319   2.089       .  S
Cd306       O308   2.004       .  S
O307        C317   1.271       .  A
O308       Cd309   1.994       .  S
Cd309       O311   2.061       .  S
O310        C317   1.276       .  A
C312        C360   1.493       .  S
C312        O316   1.277       .  A
C313        C529   1.493       .  S
C315        C340   1.487       .  S
C317        C409   1.483       .  S
C318        C580   1.495       .  S
C318        O319   1.278       .  A
C320        C321   1.409       .  A
C320        C325   1.404       .  A
C320        C880   1.482       .  S
C321        C322   1.408       .  A
C321        H326   1.083       .  S
C322        C323   1.401       .  A
C322        C600   1.484       .  S
C323        C324   1.399       .  A
C323        H327   1.084       .  S
C324        C325   1.402       .  A
C324        C329   1.476       .  S
C325        H328   1.084       .  S
C329        C330   1.412       .  A
C329        C334   1.402       .  A
C330        C331   1.399       .  A
C330       Br346   1.920       .  S
C331        C332   1.401       .  A
C331        H335   1.084       .  S
C332        C333   1.406       .  A
C332        C336   1.472       .  S
C333        C334   1.395       .  A
C333       Br345   1.918       .  S
C334        H337   1.084       .  S
C336        C338   1.399       .  A
C336        C342   1.403       .  A
C338        C339   1.401       .  A
C338        H343   1.083       .  S
C339        C340   1.420       .  A
C339       Br347   1.923       .  S
C340        C341   1.409       .  A
C341        C342   1.394       .  A
C341        H344   1.083       .  S
C342       Br348   1.920       .  S
C349        C350   1.413       .  A
C349        C354   1.405       .  A
C350        C351   1.397       .  A
C350       Br366   1.921       .  S
C351        C352   1.401       .  A
C351        H355   1.084       .  S
C352        C353   1.407       .  A
C352        C356   1.477       .  S
C353        C354   1.399       .  A
C353       Br365   1.917       .  S
C354        H357   1.084       .  S
C356        C358   1.401       .  A
C356        C362   1.405       .  A
C358        C359   1.402   1_565  A
C358        H363   1.084       .  S
C359        C360   1.421       .  A
C359       Br367   1.923       .  S
C360        C361   1.409   1_545  A
C361        C362   1.395       .  A
C361        H364   1.083       .  S
C362       Br368   1.920       .  S
C369        C370   1.410       .  A
C369        C374   1.403       .  A
C370        C371   1.400       .  A
C370       Br386   1.921       .  S
C371        C372   1.404       .  A
C371        H375   1.084       .  S
C372        C373   1.410       .  A
C372        C376   1.482       .  S
C373        C374   1.397       .  A
C373       Br385   1.920       .  S
C374        H377   1.084       .  S
C376        C378   1.403       .  A
C376        C382   1.407       .  A
C378        C379   1.399       .  A
C378        H383   1.082       .  S
C379        C380   1.415       .  A
C379       Br387   1.922       .  S
C380        C381   1.408       .  A
C381        C382   1.399       .  A
C381        H384   1.082       .  S
C382       Br388   1.919       .  S
C389        C390   1.409       .  A
C389        C394   1.403       .  A
C390        C391   1.396       .  A
C390       Br406   1.921       .  S
C391        C392   1.403       .  A
C391        H395   1.084       .  S
C392        C393   1.409       .  A
C392        C396   1.479       .  S
C393        C394   1.401       .  A
C393       Br405   1.917       .  S
C394        H397   1.084       .  S
C396        C398   1.402       .  A
C396        C402   1.403       .  A
C398        C399   1.403       .  A
C398        H403   1.084       .  S
C399        C400   1.419       .  A
C399       Br407   1.920       .  S
C400        C401   1.413       .  A
C401        C402   1.396       .  A
C401        H404   1.083       .  S
C402       Br408   1.921       .  S
C409        C410   1.419       .  A
C409        C414   1.407       .  A
C410        C411   1.397       .  A
C410       Br426   1.924       .  S
C411        C412   1.398       .  A
C411        H415   1.084       .  S
C412        C413   1.404       .  A
C412        C416   1.470       .  S
C413        C414   1.396       .  A
C413       Br425   1.919       .  S
C414        H417   1.083       .  S
C416        C418   1.402       .  A
C416        C422   1.405       .  A
C418        C419   1.400       .  A
C418        H423   1.083       .  S
C419        C420   1.410       .  A
C419       Br427   1.917       .  S
C420        C421   1.402       .  A
C421        C422   1.393       .  A
C421        H424   1.084       .  S
C422       Br428   1.919       .  S
C429        C430   1.412       .  A
C429        C434   1.406       .  A
C430        C431   1.400       .  A
C430       Br446   1.917       .  S
C431        C432   1.403       .  A
C431        H435   1.084       .  S
C432        C433   1.409       .  A
C432        C436   1.479       .  S
C433        C434   1.396       .  A
C433       Br445   1.921       .  S
C434        H437   1.084       .  S
C436        C438   1.400       .  A
C436        C442   1.407       .  A
C438        C439   1.398       .  A
C438        H443   1.084       .  S
C439        C440   1.418       .  A
C439       Br447   1.923       .  S
C440        C441   1.408       .  A
C441        C442   1.399       .  A
C441        H444   1.083       .  S
C442       Br448   1.920       .  S
C449        C450   1.411       .  A
C449        C454   1.403       .  A
C450        C451   1.399       .  A
C450       Br466   1.920       .  S
C451        C452   1.402       .  A
C451        H455   1.083       .  S
C452        C453   1.408       .  A
C452        C456   1.474       .  S
C453        C454   1.396       .  A
C453       Br465   1.919       .  S
C454        H457   1.083       .  S
C456        C458   1.399       .  A
C456        C462   1.403       .  A
C458        C459   1.399       .  A
C458        H463   1.084       .  S
C459        C460   1.420       .  A
C459       Br467   1.922       .  S
C460        C461   1.412       .  A
C461        C462   1.397       .  A
C461        H464   1.083       .  S
C462       Br468   1.919       .  S
C469        C470   1.411       .  A
C469        C474   1.405       .  A
C470        C471   1.398       .  A
C470       Br486   1.919       .  S
C471        C472   1.400       .  A
C471        H475   1.084       .  S
C472        C473   1.407       .  A
C472        C476   1.475       .  S
C473        C474   1.400       .  A
C473       Br485   1.918       .  S
C474        H477   1.084       .  S
C476        C478   1.401       .  A
C476        C482   1.406       .  A
C478        C479   1.402       .  A
C478        H483   1.082       .  S
C479        C480   1.414       .  A
C479       Br487   1.920       .  S
C480        C481   1.405       .  A
C481        C482   1.397       .  A
C481        H484   1.082       .  S
C482       Br488   1.919       .  S
C489        C490   1.411       .  A
C489        C494   1.405       .  A
C490        C491   1.397       .  A
C490       Br506   1.919       .  S
C491        C492   1.401       .  A
C491        H495   1.083       .  S
C492        C493   1.405       .  A
C492        C496   1.468       .  S
C493        C494   1.395       .  A
C493       Br505   1.919       .  S
C494        H497   1.083       .  S
C496        C498   1.400       .  A
C496        C502   1.404       .  A
C498        C499   1.396       .  A
C498        H503   1.085       .  S
C499        C500   1.414       .  A
C499       Br507   1.922       .  S
C500        C501   1.405       .  A
C501        C502   1.395       .  A
C501        H504   1.084       .  S
C502       Br508   1.918       .  S
C509        C510   1.409       .  A
C509        C514   1.404       .  A
C510        C511   1.398       .  A
C510       Br526   1.921       .  S
C511        C512   1.403       .  A
C511        H515   1.083       .  S
C512        C513   1.408       .  A
C512        C516   1.479       .  S
C513        C514   1.399       .  A
C513       Br525   1.919       .  S
C514        H517   1.083       .  S
C516        C518   1.400       .  A
C516        C522   1.406       .  A
C518        C519   1.398       .  A
C518        H523   1.084       .  S
C519        C520   1.420       .  A
C519       Br527   1.924       .  S
C520        C521   1.409       .  A
C521        C522   1.400       .  A
C521        H524   1.083       .  S
C522       Br528   1.919       .  S
C529        C530   1.421       .  A
C529        C534   1.410       .  A
C530        C531   1.396       .  A
C530       Br546   1.923       .  S
C531        C532   1.397       .  A
C531        H535   1.085       .  S
C532        C533   1.407       .  A
C532        C536   1.478       .  S
C533        C534   1.401       .  A
C533       Br545   1.919       .  S
C534        H537   1.084       .  S
C536        C538   1.403       .  A
C536        C542   1.411       .  A
C538        C539   1.399       .  A
C538        H543   1.084       .  S
C539        C540   1.408       .  A
C539       Br547   1.918       .  S
C540        C541   1.400       .  A
C541        C542   1.397       .  A
C541        H544   1.084       .  S
C542       Br548   1.919       .  S
C549        C550   1.409       .  A
C549        C554   1.402       .  A
C550        C551   1.398       .  A
C550       Br566   1.920       .  S
C551        C552   1.402       .  A
C551        H555   1.084       .  S
C552        C553   1.409       .  A
C552        C556   1.479       .  S
C553        C554   1.401       .  A
C553       Br565   1.918       .  S
C554        H557   1.084       .  S
C556        C558   1.398       .  A
C556        C562   1.405       .  A
C558        C559   1.397   1_545  A
C558        H563   1.085       .  S
C559        C560   1.422       .  A
C559       Br567   1.926       .  S
C560        C561   1.409       .  A
C561        C562   1.401   1_565  A
C561        H564   1.083       .  S
C562       Br568   1.917       .  S
C569        C570   1.415       .  A
C569        C574   1.407       .  A
C570        C571   1.403       .  A
C570       Br586   1.918       .  S
C571        C572   1.402       .  A
C571        H575   1.083       .  S
C572        C573   1.408       .  A
C572        C576   1.487       .  S
C573        C574   1.404       .  A
C573       Br585   1.917       .  S
C574        H577   1.083       .  S
C576        C578   1.402       .  A
C576        C582   1.407       .  A
C578        C579   1.405       .  A
C578        H583   1.083       .  S
C579        C580   1.418       .  A
C579       Br587   1.920       .  S
C580        C581   1.409       .  A
C581        C582   1.402       .  A
C581        H584   1.083       .  S
C582       Br588   1.918       .  S
C589        C590   1.412       .  A
C589        C594   1.405       .  A
C590        C591   1.400       .  A
C590       Br606   1.920       .  S
C591        C592   1.403       .  A
C591        H595   1.083       .  S
C592        C593   1.408       .  A
C592        C596   1.480       .  S
C593        C594   1.399       .  A
C593       Br605   1.919       .  S
C594        H597   1.083       .  S
C596        C598   1.403       .  A
C596        C602   1.408       .  A
C598        C599   1.401       .  A
C598        H603   1.084       .  S
C599        C600   1.410       .  A
C599       Br607   1.917       .  S
C600        C601   1.406       .  A
C601        C602   1.397       .  A
C601        H604   1.084       .  S
C602       Br608   1.920       .  S
C609        C610   1.411       .  A
C609        C614   1.404       .  A
C610        C611   1.397       .  A
C610       Br626   1.920       .  S
C611        C612   1.402       .  A
C611        H615   1.084       .  S
C612        C613   1.408       .  A
C612        C616   1.475       .  S
C613        C614   1.394       .  A
C613       Br625   1.920       .  S
C614        H617   1.084       .  S
C616        C618   1.402       .  A
C616        C622   1.408       .  A
C618        C619   1.394   1_556  A
C618        H623   1.083       .  S
C619        C620   1.408       .  A
C619       Br627   1.919       .  S
C620        C621   1.403   1_554  A
C621        C622   1.398       .  A
C621        H624   1.083       .  S
C622       Br628   1.919       .  S
C629        C630   1.422       .  A
C629        C634   1.409       .  A
C630        C631   1.399       .  A
C630       Br646   1.925       .  S
C631        C632   1.400       .  A
C631        H635   1.084       .  S
C632        C633   1.405       .  A
C632        C636   1.479       .  S
C633        C634   1.398       .  A
C633       Br645   1.918       .  S
C634        H637   1.083       .  S
C636        C638   1.402       .  A
C636        C642   1.408       .  A
C638        C639   1.399   1_554  A
C638        H643   1.084       .  S
C639        C640   1.410       .  A
C639       Br647   1.916       .  S
C640        C641   1.404   1_556  A
C641        C642   1.399       .  A
C641        H644   1.084       .  S
C642       Br648   1.918       .  S
C649        C650   1.406       .  A
C649        C654   1.403       .  A
C650        C651   1.395       .  A
C650       Br666   1.919       .  S
C651        C652   1.402       .  A
C651        H655   1.085       .  S
C652        C653   1.409       .  A
C652        C656   1.476       .  S
C653        C654   1.401       .  A
C653       Br665   1.919       .  S
C654        H657   1.084       .  S
C656        C658   1.398       .  A
C656        C662   1.408       .  A
C658        C659   1.396       .  A
C658        H663   1.083       .  S
C659        C660   1.417       .  A
C659       Br667   1.922       .  S
C660        C661   1.407       .  A
C661        C662   1.400       .  A
C661        H664   1.083       .  S
C662       Br668   1.920       .  S
C669        C670   1.406       .  A
C669        C674   1.401       .  A
C670        C671   1.396       .  A
C670       Br686   1.919       .  S
C671        C672   1.404       .  A
C671        H675   1.083       .  S
C672        C673   1.409       .  A
C672        C676   1.475   1_554  S
C673        C674   1.397       .  A
C673       Br685   1.919       .  S
C674        H677   1.083       .  S
C676        C678   1.400       .  A
C676        C682   1.405       .  A
C678        C679   1.399       .  A
C678        H683   1.083   1_556  S
C679        C680   1.419       .  A
C679       Br687   1.923       .  S
C680        C681   1.409       .  A
C681        C682   1.394       .  A
C681        H684   1.083       .  S
C682       Br688   1.921       .  S
C689        C690   1.412       .  A
C689        C694   1.405       .  A
C690        C691   1.398       .  A
C690       Br706   1.921       .  S
C691        C692   1.401       .  A
C691        H695   1.085       .  S
C692        C693   1.405       .  A
C692        C696   1.471       .  S
C693        C694   1.395       .  A
C693       Br705   1.918       .  S
C694        H697   1.085       .  S
C696        C698   1.402       .  A
C696        C702   1.407       .  A
C698        C699   1.399       .  A
C698        H703   1.083       .  S
C699        C700   1.407       .  A
C699       Br707   1.918       .  S
C700        C701   1.401       .  A
C701        C702   1.396       .  A
C701        H704   1.083       .  S
C702       Br708   1.920       .  S
C709        C710   1.408       .  A
C709        C714   1.403       .  A
C710        C711   1.399       .  A
C710       Br726   1.918       .  S
C711        C712   1.404       .  A
C711        H715   1.084       .  S
C712        C713   1.409       .  A
C712        C716   1.480       .  S
C713        C714   1.398       .  A
C713       Br725   1.919       .  S
C714        H717   1.084       .  S
C716        C718   1.400       .  A
C716        C722   1.406       .  A
C718        C719   1.403       .  A
C718        H723   1.083       .  S
C719        C720   1.422       .  A
C719       Br727   1.923       .  S
C720        C721   1.409       .  A
C721        C722   1.396       .  A
C721        H724   1.083       .  S
C722       Br728   1.921       .  S
C729        C730   1.416       .  A
C729        C734   1.407       .  A
C730        C731   1.400       .  A
C730       Br746   1.920       .  S
C731        C732   1.401       .  A
C731        H735   1.085       .  S
C732        C733   1.407       .  A
C732        C736   1.480       .  S
C733        C734   1.399       .  A
C733       Br745   1.920       .  S
C734        H737   1.084       .  S
C736        C738   1.403       .  A
C736        C742   1.408       .  A
C738        C739   1.399       .  A
C738        H743   1.084       .  S
C739        C740   1.410       .  A
C739       Br747   1.920       .  S
C740        C741   1.405       .  A
C741        C742   1.399       .  A
C741        H744   1.084       .  S
C742       Br748   1.919       .  S
C749        C750   1.419       .  A
C749        C754   1.406       .  A
C750        C751   1.396       .  A
C750       Br766   1.925       .  S
C751        C752   1.400       .  A
C751        H755   1.084       .  S
C752        C753   1.408       .  A
C752        C756   1.480       .  S
C753        C754   1.399       .  A
C753       Br765   1.919       .  S
C754        H757   1.083       .  S
C756        C758   1.404       .  A
C756        C762   1.409       .  A
C758        C759   1.398       .  A
C758        H763   1.084       .  S
C759        C760   1.411       .  A
C759       Br767   1.919   1_556  S
C760        C761   1.403       .  A
C761        C762   1.397       .  A
C761        H764   1.084       .  S
C762       Br768   1.919       .  S
C769        C770   1.413       .  A
C769        C774   1.406   1_545  A
C770        C771   1.402       .  A
C770       Br786   1.920       .  S
C771        C772   1.405   1_545  A
C771        H775   1.083       .  S
C772        C773   1.409       .  A
C772        C776   1.484       .  S
C773        C774   1.397       .  A
C773       Br785   1.920       .  S
C774        H777   1.084       .  S
C776        C778   1.404       .  A
C776        C782   1.409       .  A
C778        C779   1.400       .  A
C778        H783   1.082       .  S
C779        C780   1.412       .  A
C779       Br787   1.920   1_556  S
C780        C781   1.406       .  A
C781        C782   1.400       .  A
C781        H784   1.082       .  S
C782       Br788   1.919       .  S
C789        C790   1.411       .  A
C789        C794   1.402       .  A
C790        C791   1.398       .  A
C790       Br806   1.920       .  S
C791        C792   1.402       .  A
C791        H795   1.083       .  S
C792        C793   1.407       .  A
C792        C796   1.471       .  S
C793        C794   1.394       .  A
C793       Br805   1.920       .  S
C794        H797   1.084       .  S
C796        C798   1.401       .  A
C796        C802   1.405       .  A
C798        C799   1.400       .  A
C798        H803   1.083       .  S
C799        C800   1.416       .  A
C799       Br807   1.920   1_565  S
C800        C801   1.407       .  A
C801        C802   1.393       .  A
C801        H804   1.083       .  S
C802       Br808   1.921       .  S
C809        C810   1.417       .  A
C809        C814   1.409       .  A
C810        C811   1.398   1_545  A
C810       Br826   1.922       .  S
C811        C812   1.401       .  A
C811        H815   1.083       .  S
C812        C813   1.407       .  A
C812        C816   1.482       .  S
C813        C814   1.401   1_565  A
C813       Br825   1.919       .  S
C814        H817   1.083       .  S
C816        C818   1.402       .  A
C816        C822   1.410       .  A
C818        C819   1.398       .  A
C818        H823   1.083       .  S
C819        C820   1.413       .  A
C819       Br827   1.920       .  S
C820        C821   1.405       .  A
C821        C822   1.400       .  A
C821        H824   1.083       .  S
C822       Br828   1.919   1_565  S
C829        C830   1.413       .  A
C829        C834   1.404       .  A
C830        C831   1.399       .  A
C830       Br846   1.920       .  S
C831        C832   1.401       .  A
C831        H835   1.083       .  S
C832        C833   1.407       .  A
C832        C836   1.476       .  S
C833        C834   1.397       .  A
C833       Br845   1.919       .  S
C834        H837   1.083       .  S
C836        C838   1.400       .  A
C836        C842   1.404       .  A
C838        C839   1.401       .  A
C838        H843   1.083       .  S
C839        C840   1.419       .  A
C839       Br847   1.921       .  S
C840        C841   1.411       .  A
C841        C842   1.396       .  A
C841        H844   1.082       .  S
C842       Br848   1.921       .  S
C849        C850   1.409       .  A
C849        C854   1.401       .  A
C850        C851   1.396       .  A
C850       Br866   1.920       .  S
C851        C852   1.403       .  A
C851        H855   1.083       .  S
C852        C853   1.411       .  A
C852        C856   1.477       .  S
C853        C854   1.395       .  A
C853       Br865   1.920       .  S
C854        H857   1.083       .  S
C856        C858   1.402       .  A
C856        C862   1.410       .  A
C858        C859   1.392       .  A
C858        H863   1.084       .  S
C859        C860   1.409       .  A
C859       Br867   1.921       .  S
C860        C861   1.403       .  A
C861        C862   1.400       .  A
C861        H864   1.084       .  S
C862       Br868   1.919       .  S
C869        C870   1.413       .  A
C869        C874   1.405       .  A
C870        C871   1.401       .  A
C870       Br886   1.919       .  S
C871        C872   1.403       .  A
C871        H875   1.083       .  S
C872        C873   1.409       .  A
C872        C876   1.483       .  S
C873        C874   1.399       .  A
C873       Br885   1.919       .  S
C874        H877   1.083       .  S
C876        C878   1.404       .  A
C876        C882   1.409       .  A
C878        C879   1.400       .  A
C878        H883   1.083       .  S
C879        C880   1.409       .  A
C879       Br887   1.917       .  S
C880        C881   1.405       .  A
C881        C882   1.401       .  A
C881        H884   1.083       .  S
C882       Br888   1.919       .  S
C889        C890   1.410       .  A
C889        C894   1.404       .  A
C890        C891   1.395       .  A
C890       Br906   1.920       .  S
C891        C892   1.400       .  A
C891        H895   1.085       .  S
C892        C893   1.408       .  A
C892        C896   1.474       .  S
C893        C894   1.401       .  A
C893       Br905   1.916       .  S
C894        H897   1.085       .  S
C896        C898   1.398       .  A
C896        C902   1.405       .  A
C898        C899   1.399       .  A
C898        H903   1.084       .  S
C899        C900   1.421       .  A
C899       Br907   1.924       .  S
C900        C901   1.408       .  A
C901        C902   1.398       .  A
C901        H904   1.083       .  S
C902       Br908   1.919       .  S
C909        C910   1.407       .  A
C909        C914   1.402       .  A
C910        C911   1.399       .  A
C910       Br926   1.918       .  S
C911        C912   1.403       .  A
C911        H915   1.083       .  S
C912        C913   1.407       .  A
C912        C916   1.473       .  S
C913        C914   1.397       .  A
C913       Br925   1.919       .  S
C914        H917   1.084   1_655  S
C916        C918   1.400       .  A
C916        C922   1.404       .  A
C918        C919   1.401       .  A
C918        H923   1.083       .  S
C919        C920   1.417       .  A
C919       Br927   1.920       .  S
C920        C921   1.409       .  A
C921        C922   1.396       .  A
C921        H924   1.083       .  S
C922       Br928   1.921       .  S
C929        C930   1.413       .  A
C929        C934   1.404       .  A
C930        C931   1.397   1_565  A
C930       Br946   1.922   1_565  S
C931        C932   1.402   1_545  A
C931        H935   1.083       .  S
C932        C933   1.408       .  A
C932        C936   1.477   1_565  S
C933        C934   1.397       .  A
C933       Br945   1.919       .  S
C934        H937   1.083       .  S
C936        C938   1.403       .  A
C936        C942   1.410       .  A
C938        C939   1.395       .  A
C938        H943   1.084       .  S
C939        C940   1.408       .  A
C939       Br947   1.919       .  S
C940        C941   1.402       .  A
C941        C942   1.398       .  A
C941        H944   1.084       .  S
C942       Br948   1.919       .  S
C949        C950   1.412       .  A
C949        C954   1.403       .  A
C950        C951   1.401       .  A
C950       Br966   1.920       .  S
C951        C952   1.402       .  A
C951        H955   1.083       .  S
C952        C953   1.406       .  A
C952        C956   1.474       .  S
C953        C954   1.397       .  A
C953       Br965   1.918       .  S
C954        H957   1.083       .  S
C956        C958   1.402       .  A
C956        C962   1.405       .  A
C958        C959   1.400       .  A
C958        H963   1.083       .  S
C959        C960   1.412       .  A
C959       Br967   1.920       .  S
C960        C961   1.406       .  A
C961        C962   1.397       .  A
C961        H964   1.083       .  S
C962       Br968   1.919       .  S
C969        C970   1.407       .  A
C969        C974   1.403       .  A
C970        C971   1.396       .  A
C970       Br986   1.917       .  S
C971        C972   1.401       .  A
C971        H975   1.084       .  S
C972        C973   1.408       .  A
C972        C976   1.474       .  S
C973        C974   1.401       .  A
C973       Br985   1.919       .  S
C974        H977   1.084       .  S
C976        C978   1.400       .  A
C976        C982   1.405       .  A
C978        C979   1.400       .  A
C978        H983   1.083       .  S
C979        C980   1.416       .  A
C979       Br987   1.920       .  S
C980        C981   1.406       .  A
C981        C982   1.396       .  A
C981        H984   1.083       .  S
C982       Br988   1.919       .  S
C989        C990   1.415       .  A
C989        C994   1.405       .  A
C990        C991   1.397       .  A
C990      Br1006   1.923       .  S
C991        C992   1.400       .  A
C991        H995   1.084       .  S
C992        C993   1.406       .  A
C992        C996   1.471       .  S
C993        C994   1.395       .  A
C993      Br1005   1.919       .  S
C994        H997   1.083       .  S
C996        C998   1.402       .  A
C996       C1002   1.406       .  A
C998        C999   1.398       .  A
C998       H1003   1.083       .  S
C999       C1000   1.411       .  A
C999      Br1007   1.920       .  S
C1000      C1001   1.403       .  A
C1001      C1002   1.394       .  A
C1001      H1004   1.083       .  S
C1002     Br1008   1.919       .  S
C1009      C1010   1.408       .  A
C1009      C1014   1.406       .  A
C1010      C1011   1.396       .  A
C1010     Br1026   1.920       .  S
C1011      C1012   1.403       .  A
C1011      H1015   1.082       .  S
C1012      C1013   1.408       .  A
C1012      C1016   1.479       .  S
C1013      C1014   1.402       .  A
C1013     Br1025   1.918       .  S
C1014      H1017   1.082       .  S
C1016      C1018   1.404       .  A
C1016      C1022   1.409       .  A
C1018      C1019   1.399       .  A
C1018      H1023   1.084       .  S
C1019      C1020   1.407       .  A
C1019     Br1027   1.919       .  S
C1020      C1021   1.401       .  A
C1021      C1022   1.399       .  A
C1021      H1024   1.084       .  S
C1022     Br1028   1.919       .  S
C1029      C1030   1.411       .  A
C1029      C1034   1.404       .  A
C1030      C1031   1.396       .  A
C1030     Br1046   1.920       .  S
C1031      C1032   1.401       .  A
C1031      H1035   1.083       .  S
C1032      C1033   1.406       .  A
C1032      C1036   1.470       .  S
C1033      C1034   1.395       .  A
C1033     Br1045   1.919       .  S
C1034      H1037   1.083       .  S
C1036      C1038   1.400       .  A
C1036      C1042   1.403       .  A
C1038      C1039   1.395       .  A
C1038      H1043   1.083       .  S
C1039      C1040   1.415       .  A
C1039     Br1047   1.921       .  S
C1040      C1041   1.409       .  A
C1041      C1042   1.396       .  A
C1041      H1044   1.082       .  S
C1042     Br1048   1.918       .  S
C1049      C1050   1.406       .  A
C1049      C1054   1.403       .  A
C1050      C1051   1.393       .  A
C1050     Br1066   1.917       .  S
C1051      C1052   1.399       .  A
C1051      H1055   1.083       .  S
C1052      C1053   1.407       .  A
C1052      C1056   1.467       .  S
C1053      C1054   1.398       .  A
C1053     Br1065   1.919       .  S
C1054      H1057   1.083       .  S
C1056      C1058   1.400       .  A
C1056      C1062   1.404       .  A
C1058      C1059   1.396       .  A
C1058      H1063   1.084       .  S
C1059      C1060   1.415       .  A
C1059     Br1067   1.923       .  S
C1060      C1061   1.406       .  A
C1061      C1062   1.394       .  A
C1061      H1064   1.084       .  S
C1062     Br1068   1.919       .  S
C1069      C1070   1.412       .  A
C1069      C1074   1.404       .  A
C1070      C1071   1.397       .  A
C1070     Br1086   1.918       .  S
C1071      C1072   1.402       .  A
C1071      H1075   1.084       .  S
C1072      C1073   1.409       .  A
C1072      C1076   1.480       .  S
C1073      C1074   1.399       .  A
C1073     Br1085   1.917       .  S
C1074      H1077   1.084       .  S
C1076      C1078   1.404       .  A
C1076      C1082   1.409       .  A
C1078      C1079   1.399       .  A
C1078      H1083   1.083       .  S
C1079      C1080   1.407       .  A
C1079     Br1087   1.919       .  S
C1080      C1081   1.401       .  A
C1081      C1082   1.399       .  A
C1081      H1084   1.082       .  S
C1082     Br1088   1.918       .  S
C1089      C1090   1.411       .  A
C1089      C1094   1.405   1_554  A
C1090      C1091   1.398       .  A
C1090     Br1106   1.919       .  S
C1091      C1092   1.402       .  A
C1091      H1095   1.084       .  S
C1092      C1093   1.408       .  A
C1092      C1096   1.479       .  S
C1093      C1094   1.401   1_554  A
C1093     Br1105   1.918   1_554  S
C1094      H1097   1.084       .  S
C1096      C1098   1.404       .  A
C1096      C1102   1.406       .  A
C1098      C1099   1.402       .  A
C1098      H1103   1.083       .  S
C1099      C1100   1.413       .  A
C1099     Br1107   1.920       .  S
C1100      C1101   1.405       .  A
C1101      C1102   1.397       .  A
C1101      H1104   1.083       .  S
C1102     Br1108   1.919       .  S
C1109      C1110   1.410       .  A
C1109      C1114   1.405       .  A
C1110      C1111   1.402       .  A
C1110     Br1126   1.918       .  S
C1111      C1112   1.404       .  A
C1111      H1115   1.083       .  S
C1112      C1113   1.406       .  A
C1112      C1116   1.479       .  S
C1113      C1114   1.398       .  A
C1113     Br1125   1.918       .  S
C1114      H1117   1.084       .  S
C1116      C1118   1.400       .  A
C1116      C1122   1.407       .  A
C1118      C1119   1.401       .  A
C1118      H1123   1.082       .  S
C1119      C1120   1.416       .  A
C1119     Br1127   1.921       .  S
C1120      C1121   1.407       .  A
C1121      C1122   1.400       .  A
C1121      H1124   1.083       .  S
C1122     Br1128   1.919       .  S
C1129      C1130   1.410       .  A
C1129      C1134   1.404       .  A
C1130      C1131   1.401       .  A
C1130     Br1146   1.921       .  S
C1131      C1132   1.406       .  A
C1131      H1135   1.082       .  S
C1132      C1133   1.411       .  A
C1132      C1136   1.488       .  S
C1133      C1134   1.399       .  A
C1133     Br1145   1.920       .  S
C1134      H1137   1.082       .  S
C1136      C1138   1.404       .  A
C1136      C1142   1.411       .  A
C1138      C1139   1.400       .  A
C1138      H1143   1.083       .  S
C1139      C1140   1.415       .  A
C1139     Br1147   1.922       .  S
C1140      C1141   1.404       .  A
C1141      C1142   1.400       .  A
C1141      H1144   1.082       .  S
C1142     Br1148   1.919       .  S
C1149      C1150   1.416       .  A
C1149      C1154   1.406   1_554  A
C1150      C1151   1.398   1_554  A
C1150     Br1166   1.923       .  S
C1151      C1152   1.398       .  A
C1151      H1155   1.083       .  S
C1152      C1153   1.405       .  A
C1152      C1156   1.468       .  S
C1153      C1154   1.394       .  A
C1153     Br1165   1.920       .  S
C1154      H1157   1.083   1_556  S
C1156      C1158   1.399       .  A
C1156      C1162   1.405       .  A
C1158      C1159   1.395       .  A
C1158      H1163   1.083       .  S
C1159      C1160   1.411       .  A
C1159     Br1167   1.920   1_655  S
C1160      C1161   1.405       .  A
C1161      C1162   1.397       .  A
C1161      H1164   1.083       .  S
C1162     Br1168   1.919       .  S
C1169      C1170   1.421       .  A
C1169      C1174   1.409       .  A
C1170      C1171   1.395       .  A
C1170     Br1186   1.926       .  S
C1171      C1172   1.397       .  A
C1171      H1175   1.083       .  S
C1172      C1173   1.404       .  A
C1172      C1176   1.472       .  S
C1173      C1174   1.399       .  A
C1173     Br1185   1.917       .  S
C1174      H1177   1.082       .  S
C1176      C1178   1.402       .  A
C1176      C1182   1.406       .  A
C1178      C1179   1.397       .  A
C1178      H1183   1.084       .  S
C1179      C1180   1.408       .  A
C1179     Br1187   1.917       .  S
C1180      C1181   1.403   1_554  A
C1181      C1182   1.396   1_556  A
C1181      H1184   1.083       .  S
C1182     Br1188   1.918   1_554  S
C1189      C1190   1.407       .  A
C1189      C1194   1.402       .  A
C1190      C1191   1.395       .  A
C1190     Br1206   1.920       .  S
C1191      C1192   1.402       .  A
C1191      H1195   1.084       .  S
C1192      C1193   1.409       .  A
C1192      C1196   1.474       .  S
C1193      C1194   1.399       .  A
C1193     Br1205   1.918       .  S
C1194      H1197   1.084       .  S
C1196      C1198   1.402       .  A
C1196      C1202   1.406       .  A
C1198      C1199   1.400       .  A
C1198      H1203   1.085       .  S
C1199      C1200   1.412       .  A
C1199     Br1207   1.919       .  S
C1200      C1201   1.406       .  A
C1201      C1202   1.395       .  A
C1201      H1204   1.084       .  S
C1202     Br1208   1.921       .  S
C1209      C1210   1.415   1_556  A
C1209      C1214   1.406       .  A
C1210      C1211   1.400       .  A
C1210     Br1226   1.920       .  S
C1211      C1212   1.401       .  A
C1211      H1215   1.084       .  S
C1212      C1213   1.410   1_554  A
C1212      C1216   1.485       .  S
C1213      C1214   1.405       .  A
C1213     Br1225   1.918       .  S
C1214      H1217   1.083       .  S
C1216      C1218   1.403   1_545  A
C1216      C1222   1.409       .  A
C1218      C1219   1.402       .  A
C1218      H1223   1.084       .  S
C1219      C1220   1.412       .  A
C1219     Br1227   1.920       .  S
C1220      C1221   1.406       .  A
C1221      C1222   1.402   1_565  A
C1221      H1224   1.084   1_565  S
C1222     Br1228   1.918       .  S
C1229      C1230   1.411       .  A
C1229      C1234   1.405       .  A
C1230      C1231   1.398       .  A
C1230     Br1246   1.921       .  S
C1231      C1232   1.401       .  A
C1231      H1235   1.082       .  S
C1232      C1233   1.404       .  A
C1232      C1236   1.466   1_556  S
C1233      C1234   1.394       .  A
C1233     Br1245   1.920   1_556  S
C1234      H1237   1.082       .  S
C1236      C1238   1.400       .  A
C1236      C1242   1.406       .  A
C1238      C1239   1.396       .  A
C1238      H1243   1.084       .  S
C1239      C1240   1.410       .  A
C1239     Br1247   1.921       .  S
C1240      C1241   1.401       .  A
C1241      C1242   1.394       .  A
C1241      H1244   1.084       .  S
C1242     Br1248   1.918   1_554  S
C1249      C1250   1.414       .  A
C1249      C1254   1.404       .  A
C1250      C1251   1.396       .  A
C1250     Br1266   1.922       .  S
C1251      C1252   1.398       .  A
C1251      H1255   1.083       .  S
C1252      C1253   1.404       .  A
C1252      C1256   1.465       .  S
C1253      C1254   1.394       .  A
C1253     Br1265   1.919       .  S
C1254      H1257   1.083       .  S
C1256      C1258   1.400       .  A
C1256      C1262   1.404       .  A
C1258      C1259   1.397       .  A
C1258      H1263   1.083       .  S
C1259      C1260   1.408       .  A
C1259     Br1267   1.918       .  S
C1260      C1261   1.404       .  A
C1261      C1262   1.393       .  A
C1261      H1264   1.084       .  S
C1262     Br1268   1.920       .  S
C1269      C1270   1.420       .  A
C1269      C1274   1.410   1_565  A
C1270      C1271   1.401   1_565  A
C1270     Br1286   1.922       .  S
C1271      C1272   1.399       .  A
C1271      H1275   1.083       .  S
C1272      C1273   1.404       .  A
C1272      C1276   1.473       .  S
C1273      C1274   1.394       .  A
C1273     Br1285   1.921       .  S
C1274      H1277   1.082       .  S
C1276      C1278   1.400       .  A
C1276      C1282   1.407       .  A
C1278      C1279   1.395   1_655  A
C1278      H1283   1.084       .  S
C1279      C1280   1.411       .  A
C1279     Br1287   1.922       .  S
C1280      C1281   1.405   1_455  A
C1281      C1282   1.400       .  A
C1281      H1284   1.083       .  S
C1282     Br1288   1.918       .  S
