geometry optimzed in LAMMPS
_audit_creation_date              2020-11-30 
_audit_creation_method            'lammps2cif' 
_symmetry_space_group_name_H-M    'P1' 
_symmetry_Int_Tables_number       1 
_symmetry_cell_setting            triclinic 
loop_ 
_symmetry_equiv_pos_as_xyz 
  x,y,z 
_cell_length_a                    45.93962287 
_cell_length_b                    39.84743213604678 
_cell_length_c                    62.29168907222996 
_cell_angle_alpha                 90.02269992733328 
_cell_angle_beta                  90.03319944413343 
_cell_angle_gamma                 89.90441872834228 
loop_ 
_atom_site_label 
_atom_site_type_symbol 
_atom_site_fract_x 
_atom_site_fract_y 
_atom_site_fract_z 
_atom_site_charge 
N1          N  0.08913434  0.14494091  0.15536492    -0.25800
N2          N  0.09584282  0.16534423  0.13938111    -0.33600
C3          C  0.11312082  0.14878988  0.12548768     0.02600
C4          C  0.11758928  0.11655612  0.13321766     0.08600
C5          C  0.10201839  0.11509986  0.15216882    -0.04500
H6          H  0.12224341  0.15967748  0.11108140     0.09300
H7          H  0.09994350  0.09382976  0.16284284     0.10500
Cu8        Cu  0.08193857  0.21504603  0.13759663     0.44200
Cu9        Cu  0.06334777  0.15769092  0.18125926     0.42000
Cu10       Cu  0.03946494  0.24293546  0.18341969     0.43900
N11         N  0.06585257  0.26364259  0.14110675    -0.33200
N12         N  0.05045036  0.27360107  0.15785936    -0.27400
C13         C  0.04405539  0.30634888  0.15570519    -0.03500
C14         C  0.05599211  0.31781751  0.13665552     0.08700
C15         C  0.06962745  0.28990616  0.12782207     0.02500
H16         H  0.03230408  0.32087958  0.16754326     0.10200
H17         H  0.08141470  0.28862654  0.11282000     0.09200
N18         N  0.03106667  0.20837783  0.20743917    -0.34600
N19         N  0.03938818  0.17671261  0.20652970    -0.26800
C20         C  0.03117737  0.16100615  0.22464586    -0.02000
C21         C  0.01702698  0.18401356  0.23775464     0.06600
C22         C  0.01753253  0.21381906  0.22620910     0.04700
H23         H  0.03548689  0.13484295  0.22794719     0.09800
H24         H  0.00968992  0.23813573  0.23130888     0.08600
C25         C  0.06922675  0.51126638  0.10360495     0.04700
C26         C  0.06985765  0.47876887  0.11233010    -0.11500
C27         C  0.05301038  0.45313698  0.10321442     0.02200
C28         C  0.03559265  0.45995394  0.08526719    -0.10000
C29         C  0.03516982  0.49217813  0.07621073     0.04600
C30         C  0.05200098  0.51767229  0.08546004    -0.09400
H31         H  0.08307140  0.47350180  0.12635307     0.10200
H32         H  0.02285006  0.43999340  0.07810785     0.07800
H33         H  0.05163263  0.54261991  0.07853199     0.07600
N34         N  0.42877876  0.12919426  0.41405374    -0.25800
N35         N  0.41941105  0.15034919  0.42892931    -0.33600
C36         C  0.40290381  0.13350744  0.44309996     0.02600
C37         C  0.40212418  0.10018088  0.43697575     0.08600
C38         C  0.41879776  0.09829636  0.41856519    -0.04500
H39         H  0.39243806  0.14467169  0.45693047     0.09300
H40         H  0.42266166  0.07629302  0.40878420     0.10500
Cu41       Cu  0.42970677  0.20099014  0.43007180     0.44200
Cu42       Cu  0.45240387  0.14287679  0.38706989     0.42000
Cu43       Cu  0.47193038  0.22950898  0.38530579     0.43900
N44         N  0.44662872  0.24908524  0.42798962    -0.33200
N45         N  0.46303932  0.25889196  0.41179295    -0.27400
C46         C  0.47085486  0.29096921  0.41480604    -0.03500
C47         C  0.45845738  0.30236030  0.43375291     0.08700
C48         C  0.44330760  0.27489319  0.44171331     0.02500
H49         H  0.48439993  0.30485631  0.40377185     0.10200
H50         H  0.43001925  0.27389604  0.45601663     0.09200
N51         N  0.47590087  0.19772586  0.35930273    -0.34600
N52         N  0.46977252  0.16536224  0.35993477    -0.26800
C53         C  0.47408051  0.15207734  0.34028839    -0.02000
C54         C  0.48289414  0.17759264  0.32669419     0.06600
C55         C  0.48379759  0.20610634  0.33928091     0.04700
H56         H  0.46993460  0.12619978  0.33602893     0.09800
H57         H  0.48952924  0.23120899  0.33421300     0.08600
C58         C  0.44402214  0.49583372  0.46658280     0.04700
C59         C  0.44349460  0.46282597  0.45868509    -0.11500
C60         C  0.46116438  0.43779760  0.46788419     0.02200
C61         C  0.47944483  0.44606186  0.48516279    -0.10000
C62         C  0.47986166  0.47877479  0.49344903     0.04600
C63         C  0.46211257  0.50348746  0.48410958    -0.09400
H64         H  0.42950152  0.45666197  0.44524809     0.10200
H65         H  0.49321442  0.42696540  0.49229017     0.07800
H66         H  0.46237773  0.52876167  0.49054236     0.07600
N67         N  0.08019661  0.85893776  0.65193924    -0.25800
N68         N  0.08862902  0.83906050  0.63609534    -0.33600
C69         C  0.10616422  0.85635890  0.62286493     0.02600
C70         C  0.10910019  0.88859870  0.63082105     0.08600
C71         C  0.09232827  0.88930693  0.64926841    -0.04500
H72         H  0.11684776  0.84579986  0.60892413     0.09300
H73         H  0.08927363  0.91026435  0.66009170     0.10500
Cu74       Cu  0.07779757  0.78876261  0.63357582     0.44200
Cu75       Cu  0.05384184  0.84413731  0.67723326     0.42000
Cu76       Cu  0.03099413  0.75804608  0.67535672     0.43900
N77         N  0.06422318  0.73929079  0.63551825    -0.33200
N78         N  0.04632203  0.72837228  0.65052291    -0.27400
C79         C  0.04178631  0.69537722  0.64767826    -0.03500
C80         C  0.05786957  0.68466414  0.63009502     0.08700
C81         C  0.07181625  0.71342091  0.62282162     0.02500
H82         H  0.02775195  0.68048254  0.65780269     0.10200
H83         H  0.08704355  0.71544070  0.60966659     0.09200
N84         N  0.02257889  0.78961498  0.70102308    -0.34600
N85         N  0.03054350  0.82139657  0.70172782    -0.26800
C86         C  0.02347830  0.83415679  0.72104493    -0.02000
C87         C  0.01066287  0.80902306  0.73329318     0.06600
C88         C  0.01055980  0.78115818  0.71989444     0.04700
H89         H  0.02795359  0.85971010  0.72580451     0.09800
H90         H  0.00373445  0.75595576  0.72381201     0.08600
C91         C  0.08289082  0.49163569  0.59667326     0.04700
C92         C  0.06718323  0.48471999  0.57779020    -0.11500
C93         C  0.05007703  0.50959011  0.56800300     0.02200
C94         C  0.04919755  0.54185639  0.57694757    -0.10000
C95         C  0.06508656  0.54947815  0.59555867     0.04600
C96         C  0.08171470  0.52416444  0.60545249    -0.09400
H97         H  0.06801128  0.45983809  0.57078958     0.10200
H98         H  0.03593917  0.56107695  0.56943417     0.07800
H99         H  0.09372014  0.52980748  0.61998179     0.07600
N100        N  0.42933027  0.86382987  0.91103018    -0.25800
N101        N  0.42406025  0.84483962  0.92797122    -0.33600
C102        C  0.40926210  0.86286276  0.94259331     0.02600
C103        C  0.40488128  0.89483972  0.93450198     0.08600
C104        C  0.41800417  0.89449898  0.91445123    -0.04500
H105        H  0.40132794  0.85290886  0.95764331     0.09300
H106        H  0.41901706  0.91487474  0.90301479     0.10500
Cu107      Cu  0.43550506  0.79478451  0.93007933     0.44200
Cu108      Cu  0.44950790  0.84653132  0.88327758     0.42000
Cu109      Cu  0.46478416  0.75725298  0.88210410     0.43900
N110        N  0.44750711  0.74492288  0.92795201    -0.33200
N111        N  0.45830630  0.73105586  0.91040905    -0.27400
C112        C  0.46281036  0.69819328  0.91403871    -0.03500
C113        C  0.45424239  0.69101733  0.93485598     0.08700
C114        C  0.44473806  0.72131759  0.94318885     0.02500
H115        H  0.47065179  0.68063321  0.90211231     0.10200
H116        H  0.43612166  0.72592427  0.95907877     0.09200
N117        N  0.46987452  0.78872441  0.85591569    -0.34600
N118        N  0.46536875  0.82150311  0.85641562    -0.26800
C119        C  0.47090954  0.83431613  0.83683233    -0.02000
C120        C  0.47890266  0.80822774  0.82336328     0.06600
C121        C  0.47798449  0.77974230  0.83600500     0.04700
H122        H  0.46838182  0.86046705  0.83254980     0.09800
H123        H  0.48290167  0.75430620  0.83110683     0.08600
C124        C  0.43042777  0.50310838  0.97412202     0.04700
C125        C  0.43102413  0.53537208  0.96513047    -0.11500
C126        C  0.44864462  0.56033363  0.97415105     0.02200
C127        C  0.46534216  0.55328319  0.99239134    -0.10000
C128        C  0.46464245  0.52126547  0.00170977     0.04600
C129        C  0.44712522  0.49629349  0.99249881    -0.09400
H130        H  0.41853350  0.54078442  0.95077066     0.10200
H131        H  0.47875603  0.57281249  0.99936798     0.07800
H132        H  0.44685887  0.47133934  0.99941494     0.07600
N133        N  0.18084033  0.35580476  0.65593079    -0.25800
N134        N  0.17088550  0.33492113  0.64114415    -0.33600
C135        C  0.15310094  0.35190303  0.62782351     0.02600
C136        C  0.15202366  0.38508498  0.63443968     0.08600
C137        C  0.16998208  0.38664008  0.65223933    -0.04500
H138        H  0.14165859  0.34085015  0.61438910     0.09300
H139        H  0.17387556  0.40826712  0.66234126     0.10500
Cu140      Cu  0.18120754  0.28404199  0.64004082     0.44200
Cu141      Cu  0.20581886  0.34109268  0.68202438     0.42000
Cu142      Cu  0.22136921  0.25258189  0.68559046     0.43900
N143        N  0.19494123  0.23447368  0.64300790    -0.33200
N144        N  0.20950773  0.22314165  0.65980714    -0.27400
C145        C  0.21516391  0.19033516  0.65709768    -0.03500
C146        C  0.20366991  0.18036473  0.63757873     0.08700
C147        C  0.19101407  0.20907251  0.62907441     0.02500
H148        H  0.22722372  0.17509575  0.66839630     0.10200
H149        H  0.17943183  0.21130917  0.61401981     0.09200
N150        N  0.23070474  0.28639497  0.70969718    -0.34600
N151        N  0.22511192  0.31887058  0.70854704    -0.26800
C152        C  0.23248634  0.33336041  0.72729169    -0.02000
C153        C  0.24339741  0.30874915  0.74081016     0.06600
C154        C  0.24190456  0.27932242  0.72907156     0.04700
H155        H  0.22985843  0.35976951  0.73081955     0.09800
H156        H  0.24757289  0.25433601  0.73443526     0.08600
C157        C  0.18550499  0.99139083  0.59770956     0.04700
C158        C  0.18549038  0.02396878  0.60624860    -0.11500
C159        C  0.20639659  0.04756784  0.59985244     0.02200
C160        C  0.22692600  0.03859429  0.58416226    -0.10000
C161        C  0.22640939  0.00655914  0.57482947     0.04600
C162        C  0.20590550  0.98295708  0.58184554    -0.09400
H163        H  0.16906471  0.03099272  0.61789805     0.10200
H164        H  0.24312322  0.05661123  0.57902071     0.07800
H165        H  0.20627044  0.95780746  0.57521956     0.07600
N166        N  0.33668593  0.36575969  0.91375053    -0.25800
N167        N  0.34826508  0.34509848  0.92804550    -0.33600
C168        C  0.36602184  0.36254707  0.94103319     0.02600
C169        C  0.36538050  0.39578313  0.93478046     0.08600
C170        C  0.34651329  0.39701222  0.91749803    -0.04500
H171        H  0.37837858  0.35181781  0.95414186     0.09300
H172        H  0.34103244  0.41879122  0.90793939     0.10500
Cu173      Cu  0.33991047  0.29411437  0.92988370     0.44200
Cu174      Cu  0.31033769  0.35050295  0.88848727     0.42000
Cu175      Cu  0.29856644  0.26096120  0.88656016     0.43900
N176        N  0.32741224  0.24427620  0.92830003    -0.33200
N177        N  0.31183698  0.23221803  0.91225472    -0.27400
C178        C  0.30670844  0.19948908  0.91565493    -0.03500
C179        C  0.31973743  0.19038734  0.93482872     0.08700
C180        C  0.33272288  0.21946560  0.94240032     0.02500
H181        H  0.29470014  0.18348323  0.90478214     0.10200
H182        H  0.34471740  0.22256610  0.95721716     0.09200
N183        N  0.28803186  0.29321001  0.86189830    -0.34600
N184        N  0.29129938  0.32614561  0.86259904    -0.26800
C185        C  0.28370111  0.33913752  0.84342915    -0.02000
C186        C  0.27568570  0.31292982  0.83010110     0.06600
C187        C  0.27867215  0.28427527  0.84232763     0.04700
H188        H  0.28556862  0.36534696  0.83912819     0.09800
H189        H  0.27514709  0.25866171  0.83718529     0.08600
C190        C  0.33695663  0.00129149  0.97352650     0.04700
C191        C  0.31841463  0.99407122  0.99085659    -0.11500
C192        C  0.30075462  0.01920466  0.99984603     0.02200
C193        C  0.30129014  0.05164625  0.99113048    -0.10000
C194        C  0.31964913  0.05911367  0.97384830     0.04600
C195        C  0.33770807  0.03409693  0.96531814    -0.09400
H196        H  0.31747867  0.96881192  0.99725073     0.10200
H197        H  0.28725866  0.07101697  0.99766284     0.07800
H198        H  0.35206861  0.04015175  0.95208073     0.07600
N199        N  0.16748672  0.64930684  0.15895081    -0.25800
N200        N  0.15415890  0.67052631  0.14588805    -0.33600
C201        C  0.13510068  0.65349936  0.13367919     0.02600
C202        C  0.13666589  0.61995188  0.13923041     0.08600
C203        C  0.15744053  0.61818614  0.15525243    -0.04500
H204        H  0.12137732  0.66470065  0.12150430     0.09300
H205        H  0.16417722  0.59606957  0.16402793     0.10500
Cu206      Cu  0.16283790  0.72141178  0.14450337     0.44200
Cu207      Cu  0.19686254  0.66329519  0.18256113     0.42000
Cu208      Cu  0.21281738  0.75113292  0.18474550     0.43900
N209        N  0.17988526  0.76941349  0.14465840    -0.33200
N210        N  0.19892401  0.77985327  0.15908536    -0.27400
C211        C  0.20715848  0.81126143  0.15422598    -0.03500
C212        C  0.19246820  0.82116322  0.13590476     0.08700
C213        C  0.17527909  0.79404035  0.13029737     0.02500
H214        H  0.22246894  0.82590366  0.16351518     0.10200
H215        H  0.16102763  0.79201111  0.11652497     0.09200
N216        N  0.22344786  0.71803317  0.20907701    -0.34600
N217        N  0.21877407  0.68536622  0.20798488    -0.26800
C218        C  0.22717677  0.67108413  0.22657622    -0.02000
C219        C  0.23721533  0.69614584  0.24004884     0.06600
C220        C  0.23451330  0.72555010  0.22845072     0.04700
H221        H  0.22464107  0.64478082  0.23043062     0.09800
H222        H  0.23963251  0.75066271  0.23385894     0.08600
C223        C  0.18658171  0.00989252  0.09596905     0.04700
C224        C  0.20597296  0.01628900  0.07906144    -0.11500
C225        C  0.22288424  0.99031874  0.07027518     0.02200
C226        C  0.22035908  0.95773092  0.07861865    -0.10000
C227        C  0.20105973  0.95104063  0.09552683     0.04600
C228        C  0.18415643  0.97716577  0.10402643    -0.09400
H229        H  0.20798367  0.04152973  0.07276945     0.10200
H230        H  0.23352506  0.93761506  0.07204037     0.07800
H231        H  0.16924766  0.97204442  0.11709543     0.07600
N232        N  0.34748748  0.63389562  0.40795371    -0.25800
N233        N  0.35821397  0.65376488  0.42301429    -0.33600
C234        C  0.37523630  0.63563608  0.43619321     0.02600
C235        C  0.37504740  0.60266822  0.42929460     0.08600
C236        C  0.35715143  0.60238285  0.41138773    -0.04500
H237        H  0.38702324  0.64577043  0.44976479     0.09300
H238        H  0.35244055  0.58114282  0.40114117     0.10500
Cu239      Cu  0.34910238  0.70455138  0.42554904     0.44200
Cu240      Cu  0.32206755  0.65149903  0.38259246     0.42000
Cu241      Cu  0.30013137  0.73924218  0.38640995     0.43900
N242        N  0.33308637  0.75309304  0.42719762    -0.33200
N243        N  0.31432297  0.76551289  0.41320648    -0.27400
C244        C  0.30735549  0.79700613  0.41906240    -0.03500
C245        C  0.32260780  0.80486544  0.43758961     0.08700
C246        C  0.33874780  0.77640164  0.44224529     0.02500
H247        H  0.29280727  0.81324671  0.41017411     0.10200
H248        H  0.35325493  0.77267740  0.45572500     0.09200
N249        N  0.29134793  0.70875096  0.36017378    -0.34600
N250        N  0.29921059  0.67691238  0.35865994    -0.26800
C251        C  0.29101370  0.66509868  0.33931777    -0.02000
C252        C  0.27731107  0.69073817  0.32805186     0.06600
C253        C  0.27805084  0.71801056  0.34188825     0.04700
H254        H  0.29482736  0.63967089  0.33394239     0.09800
H255        H  0.27041984  0.74320529  0.33870361     0.08600
C256        C  0.33936543  0.99266672  0.47837382     0.04700
C257        C  0.32224441  0.99939185  0.49655493    -0.11500
C258        C  0.30490149  0.97424028  0.50562611     0.02200
C259        C  0.30522962  0.94187248  0.49683103    -0.10000
C260        C  0.32283882  0.93451555  0.47907952     0.04600
C261        C  0.33981724  0.95998762  0.46987940    -0.09400
H262        H  0.32179282  0.02443689  0.50334297     0.10200
H263        H  0.29176990  0.92240832  0.50381614     0.07800
H264        H  0.35250362  0.95460301  0.45562225     0.07600
C265        C  0.29638271  0.85546926  0.45167399     0.25100
C266        C  0.32242482  0.83718601  0.44932135    -0.23000
C267        C  0.34839276  0.85051706  0.45776026     0.20000
C268        C  0.34846921  0.88207548  0.46761581     0.25100
C269        C  0.32255289  0.90057274  0.46951410    -0.22900
C270        C  0.29642939  0.88679568  0.46180552     0.20000
F271        F  0.27106639  0.90413489  0.46356263    -0.12900
F272        F  0.27077452  0.84283745  0.44441584    -0.15300
F273        F  0.37385597  0.89459314  0.47538393    -0.15300
F274        F  0.37393198  0.83362433  0.45577508    -0.12900
C275        C  0.23346713  0.71348347  0.27838456     0.25100
C276        C  0.24624088  0.69297827  0.26267970    -0.23000
C277        C  0.26809496  0.67020004  0.26866585     0.20000
C278        C  0.27797467  0.66896563  0.28994520     0.25100
C279        C  0.26573885  0.69017172  0.30571354    -0.22900
C280        C  0.24285248  0.71186660  0.29970904     0.20000
F281        F  0.22908303  0.73120535  0.31450221    -0.12900
F282        F  0.21143998  0.73472468  0.27312388    -0.15300
F283        F  0.30038586  0.64807862  0.29477704    -0.15300
F284        F  0.28084495  0.65026068  0.25368235    -0.12100
C285        C  0.22199904  0.86944028  0.12250328     0.25100
C286        C  0.19477898  0.85374430  0.12479247    -0.23000
C287        C  0.16974215  0.86975495  0.11678444     0.20000
C288        C  0.17183953  0.90117894  0.10695169     0.25100
C289        C  0.19902301  0.91701065  0.10484954    -0.22900
C290        C  0.22410874  0.90076980  0.11256464     0.20000
F291        F  0.25056227  0.91575195  0.11111339    -0.12900
F292        F  0.24664826  0.85429135  0.12967245    -0.15300
F293        F  0.14728822  0.91619229  0.09947922    -0.15300
F294        F  0.14308138  0.85561127  0.11922079    -0.12900
C295        C  0.24201032  0.97827696  0.03340660     0.25100
C296        C  0.24322793  0.99731192  0.05240425    -0.23000
C297        C  0.26376794  0.02332205  0.05412317     0.20000
C298        C  0.28257055  0.03035733  0.03706859     0.25100
C299        C  0.28122287  0.01142394  0.01804134    -0.22900
C300        C  0.26087448  0.98525119  0.01638747     0.20000
F301        F  0.25865606  0.96711660  0.99800210    -0.12900
F302        F  0.22191098  0.95359996  0.03106347    -0.15300
F303        F  0.30249942  0.05525407  0.03928533    -0.15300
F304        F  0.26600606  0.04149000  0.07249865    -0.12900
C305        C  0.29476247  0.10451900  0.95328534     0.25100
C306        C  0.31948227  0.09289548  0.96425500    -0.23000
C307        C  0.34425747  0.11330671  0.96557077     0.20000
C308        C  0.34431482  0.14512230  0.95612072     0.25100
C309        C  0.31962319  0.15685807  0.94500835    -0.22900
C310        C  0.29485789  0.13616796  0.94361538     0.20000
F311        F  0.27049381  0.14678216  0.93328940    -0.12900
F312        F  0.27070600  0.08492085  0.95163296    -0.15300
F313        F  0.36885257  0.16396247  0.95727979    -0.15300
F314        F  0.36833782  0.10242424  0.97614279    -0.12900
C315        C  0.27700965  0.00144057  0.56008873     0.25100
C316        C  0.24677773  0.99794950  0.55731519    -0.23000
C317        C  0.23589554  0.98662660  0.53750317     0.20000
C318        C  0.25490757  0.97883139  0.52075087     0.25100
C319        C  0.28508491  0.98227395  0.52351933    -0.22900
C320        C  0.29604463  0.99377381  0.54324935     0.20000
F321        F  0.32517774  0.99698160  0.54628971    -0.12900
F322        F  0.28808289  0.01158744  0.57923101    -0.15300
F323        F  0.24384023  0.96880735  0.50157598    -0.15300
F324        F  0.20676627  0.98402379  0.53419184    -0.12900
C325        C  0.27598818  0.29209707  0.77109445     0.25100
C326        C  0.25304816  0.31215411  0.76335435    -0.23000
C327        C  0.23869322  0.33411308  0.77758967     0.20000
C328        C  0.24665119  0.33520799  0.79928706     0.25100
C329        C  0.26882948  0.31420104  0.80704138    -0.22900
C330        C  0.28369401  0.29301113  0.79274907     0.20000
F331        F  0.30593604  0.27335949  0.79975074    -0.12900
F332        F  0.29120778  0.27177013  0.75765996    -0.15300
F333        F  0.23167302  0.35542122  0.81293671    -0.15300
F334        F  0.21595515  0.35316006  0.77081730    -0.12900
C335        C  0.20743807  0.14236283  0.60559541     0.25100
C336        C  0.20480243  0.14639032  0.62795117    -0.23000
C337        C  0.20331919  0.11763547  0.64103032     0.20000
C338        C  0.20431091  0.08559354  0.63192781     0.25100
C339        C  0.20650433  0.08158599  0.60953462    -0.22900
C340        C  0.20816380  0.11031027  0.59647685     0.20000
F341        F  0.20975634  0.10742632  0.57479024    -0.12900
F342        F  0.20989503  0.16943671  0.59251500    -0.15300
F343        F  0.20341207  0.05843465  0.64508337    -0.15300
F344        F  0.20005209  0.12040073  0.66261802    -0.12900
C345        C  0.38373540  0.47984183  0.95948575     0.25100
C346        C  0.41362566  0.47596663  0.96373361    -0.23000
C347        C  0.42759845  0.44588675  0.95793700     0.20000
C348        C  0.41188356  0.41988586  0.94840041     0.25100
C349        C  0.38199777  0.42365777  0.94428418    -0.22900
C350        C  0.36806338  0.45390522  0.94970500     0.20000
F351        F  0.33906697  0.45781773  0.94626987    -0.12900
F352        F  0.36956419  0.50830521  0.96540569    -0.15300
F353        F  0.42604424  0.39132614  0.94265602    -0.15300
F354        F  0.45665693  0.44197703  0.96110980    -0.12900
C355        C  0.38779462  0.92670787  0.96696505     0.25100
C356        C  0.38804254  0.92249854  0.94451458    -0.23000
C357        C  0.37156593  0.94460235  0.93172660     0.20000
C358        C  0.35511671  0.97018380  0.94115152     0.25100
C359        C  0.35486407  0.97440922  0.96358254    -0.22900
C360        C  0.37147780  0.95247816  0.97638391     0.20000
F361        F  0.37245795  0.95643583  0.99802594    -0.12900
F362        F  0.40390423  0.90642180  0.97984458    -0.15300
F363        F  0.33859200  0.99011046  0.92831292    -0.15300
F364        F  0.37031019  0.94070083  0.91010105    -0.12900
C365        C  0.47512452  0.63374454  0.94136448     0.25100
C366        C  0.45320401  0.65771472  0.94529470    -0.23000
C367        C  0.42992119  0.64933165  0.95898938     0.20000
C368        C  0.42841254  0.61749289  0.96829679     0.25100
C369        C  0.45020408  0.59371889  0.96423733    -0.22900
C370        C  0.47367080  0.60201178  0.95087925     0.20000
F371        F  0.49507620  0.57925757  0.94701150    -0.12900
F372        F  0.49828134  0.64124008  0.92872339    -0.15300
F373        F  0.40569345  0.60980807  0.98132101    -0.15300
F374        F  0.40808941  0.67150729  0.96285530    -0.12900
C375        C  0.12944677  0.47052791  0.61332540     0.25100
C376        C  0.10038267  0.46474138  0.60714250    -0.23000
C377        C  0.08827255  0.43274827  0.61063741     0.20000
C378        C  0.10509476  0.40687053  0.61943520     0.25100
C379        C  0.13421813  0.41256300  0.62528447    -0.22900
C380        C  0.14611647  0.44474406  0.62245398     0.20000
F381        F  0.17426287  0.45091867  0.62779191    -0.12900
F382        F  0.14208076  0.50082186  0.60986203    -0.15300
F383        F  0.09260587  0.37647888  0.62284674    -0.15300
F384        F  0.05988704  0.42669731  0.60596539    -0.12900
C385        C  0.48090489  0.78707453  0.76419418     0.25100
C386        C  0.00136693  0.81032666  0.75622635    -0.23000
C387        C  0.01342682  0.83390560  0.77063997     0.20000
C388        C  0.00544652  0.83388897  0.79234926     0.25100
C389        C  0.48591122  0.80983753  0.80024190    -0.22900
C390        C  0.47363255  0.78656881  0.78597381     0.20000
F391        F  0.45402087  0.76364741  0.79305566    -0.12900
F392        F  0.46739744  0.76500407  0.75094282    -0.15300
F393        F  0.01792729  0.85640199  0.80587274    -0.15300
F394        F  0.03392243  0.85612864  0.76411434    -0.12900
C395        C  0.14905233  0.94526752  0.59193737     0.25100
C396        C  0.16499179  0.96584842  0.60603383    -0.23000
C397        C  0.16185293  0.96129412  0.62831117     0.20000
C398        C  0.14336397  0.93654530  0.63634147     0.25100
C399        C  0.12778418  0.91561781  0.62226905    -0.22900
C400        C  0.13073029  0.92025982  0.59998942     0.20000
F401        F  0.11539160  0.90106828  0.58598190    -0.12900
F402        F  0.15081482  0.94972787  0.57036504    -0.15300
F403        F  0.14179506  0.93211330  0.65791549    -0.15300
F404        F  0.17759131  0.97996048  0.64237887    -0.12900
C405        C  0.06716092  0.64447861  0.59958710     0.25100
C406        C  0.06016852  0.64994745  0.62135040    -0.23000
C407        C  0.05530983  0.62179508  0.63462225     0.20000
C408        C  0.05703082  0.58923130  0.62628783     0.25100
C409        C  0.06400963  0.58394221  0.60459597    -0.22900
C410        C  0.06922415  0.61188566  0.59137790     0.20000
F411        F  0.07658329  0.60763427  0.57043984    -0.12900
F412        F  0.07125337  0.67058014  0.58594516    -0.15300
F413        F  0.05113130  0.56284526  0.63935937    -0.15300
F414        F  0.04936954  0.62548038  0.65582285    -0.12900
C415        C  0.43915311  0.55323574  0.45054889     0.25100
C416        C  0.42618423  0.52259740  0.45636752    -0.23000
C417        C  0.39619279  0.51806683  0.45257509     0.20000
C418        C  0.37952986  0.54387994  0.44338606     0.25100
C419        C  0.39249822  0.57472845  0.43814635    -0.22900
C420        C  0.42242223  0.57912719  0.44176053     0.20000
F421        F  0.43564251  0.60834303  0.43628586    -0.12900
F422        F  0.46824305  0.55788822  0.45297066    -0.15300
F423        F  0.35053077  0.53924244  0.44041276    -0.15300
F424        F  0.38283113  0.48910785  0.45842044    -0.12900
C425        C  0.48526283  0.50048494  0.53087107     0.25100
C426        C  0.49813619  0.48691908  0.51233814    -0.23000
C427        C  0.02832001  0.48084032  0.51213465     0.20000
C428        C  0.04530280  0.48819604  0.53022236     0.25100
C429        C  0.03235081  0.50173298  0.54876987    -0.22900
C430        C  0.00219475  0.50783149  0.54890572     0.20000
F431        F  0.48898360  0.52011080  0.56675655    -0.12900
F432        F  0.45607492  0.50573488  0.53171046    -0.15300
F433        F  0.07448777  0.48286735  0.52946050    -0.15300
F434        F  0.04142439  0.46848483  0.49425919    -0.12900
C435        C  0.35685375  0.07693266  0.45323960     0.25100
C436        C  0.38615224  0.07267132  0.44745429    -0.23000
C437        C  0.40002757  0.04192733  0.45163419     0.20000
C438        C  0.38495433  0.01595608  0.46182763     0.25100
C439        C  0.35558208  0.02015651  0.46768936    -0.22900
C440        C  0.34160605  0.05081550  0.46306959     0.20000
F441        F  0.31290108  0.05517448  0.46748382    -0.12900
F442        F  0.34268349  0.10600831  0.44868117    -0.15300
F443        F  0.39929174  0.98702373  0.46644934    -0.15300
F444        F  0.42847204  0.03743006  0.44645162    -0.12900
C445        C  0.46342932  0.36477761  0.42894727     0.25100
C446        C  0.45957798  0.33697059  0.44266019    -0.23000
C447        C  0.45645726  0.34275320  0.46487024     0.20000
C448        C  0.45691266  0.37546659  0.47306926     0.25100
C449        C  0.46073919  0.40307912  0.45929722    -0.22900
C450        C  0.46417074  0.39735260  0.43720104     0.20000
F451        F  0.46865819  0.42337016  0.42353147    -0.12900
F452        F  0.46566911  0.36081610  0.40738209    -0.15300
F453        F  0.45302295  0.38017968  0.49446954    -0.15300
F454        F  0.45346435  0.31681698  0.47880547    -0.12900
C455        C  0.07305968  0.56958391  0.11826473     0.25100
C456        C  0.08642589  0.53873823  0.11331287    -0.23000
C457        C  0.11640112  0.53472690  0.11711172     0.20000
C458        C  0.13273034  0.56113818  0.12564583     0.25100
C459        C  0.11940289  0.59205724  0.13034062    -0.22900
C460        C  0.08944411  0.59608075  0.12657279     0.20000
F461        F  0.07583430  0.62535846  0.13150742    -0.12900
F462        F  0.04397382  0.57385538  0.11543077    -0.15300
F463        F  0.16179715  0.55690590  0.12855709    -0.15300
F464        F  0.13007657  0.50562652  0.11186835    -0.12900
C465        C  0.02967961  0.51416762  0.03879182     0.25100
C466        C  0.01717311  0.49934443  0.05707146    -0.23000
C467        C  0.98730737  0.49178114  0.05706231     0.20000
C468        C  0.47020022  0.49891787  0.03907363     0.25100
C469        C  0.48270145  0.51369896  0.02077579    -0.22900
C470        C  0.01260844  0.52119261  0.02077810     0.20000
F471        F  0.02545562  0.53456644  0.00311906    -0.12900
F472        F  0.05858745  0.52118420  0.03820264    -0.15300
F473        F  0.44124458  0.49222705  0.03975249    -0.15300
F474        F  0.47453134  0.47838945  0.07473753    -0.12900
C475        C  0.01779499  0.15460777  0.27373382     0.25100
C476        C  0.00581782  0.17916036  0.25994357    -0.23000
C477        C  0.48389988  0.20050795  0.26800444     0.20000
C478        C  0.47591326  0.19921606  0.28960066     0.25100
C479        C  0.98892454  0.17590934  0.30348733    -0.22900
C480        C  0.00914143  0.15282974  0.29527439     0.20000
F481        F  0.02187765  0.12993413  0.30842255    -0.12900
F482        F  0.03902019  0.13347736  0.26686779    -0.15300
F483        F  0.45535455  0.22084544  0.29698903    -0.15300
F484        F  0.47000634  0.22271791  0.25503485    -0.12900
C485        C  0.15177760  0.06785532  0.13682332     0.25100
C486        C  0.13543190  0.08950116  0.12362532    -0.23000
C487        C  0.13604621  0.08479746  0.10125313     0.20000
C488        C  0.15260615  0.05888595  0.09225468     0.25100
C489        C  0.16907717  0.03740885  0.10544579    -0.22900
C490        C  0.16856485  0.04220992  0.12781212     0.20000
F491        F  0.18490275  0.02254540  0.14095126    -0.12900
F492        F  0.15223218  0.07205586  0.15845132    -0.15300
F493        F  0.15182647  0.05412971  0.07067659    -0.15300
F494        F  0.11975541  0.10447107  0.08811500    -0.12900
C495        C  0.03060736  0.40664697  0.12427612     0.25100
C496        C  0.05395699  0.41892350  0.11213810    -0.23000
C497        C  0.07795737  0.39813973  0.10806132     0.20000
C498        C  0.07861598  0.36527251  0.11593046     0.25100
C499        C  0.05521706  0.35264690  0.12812600    -0.22900
C500        C  0.03121816  0.37383610  0.13228316     0.20000
F501        F  0.00794383  0.36264838  0.14360417    -0.12900
F502        F  0.00723562  0.42654120  0.12839869    -0.15300
F503        F  0.10253903  0.34621262  0.11204171    -0.15300
F504        F  0.10065248  0.40965301  0.09622694    -0.12900
N505        N  0.58913430  0.14494106  0.15536492    -0.25800
N506        N  0.59584278  0.16534435  0.13938110    -0.33600
C507        C  0.61312091  0.14879008  0.12548773     0.02600
C508        C  0.61758928  0.11655633  0.13321764     0.08600
C509        C  0.60201845  0.11510011  0.15216882    -0.04500
H510        H  0.62224345  0.15967768  0.11108143     0.09300
H511        H  0.59994331  0.09382993  0.16284272     0.10500
Cu512      Cu  0.58193856  0.21504618  0.13759665     0.44200
Cu513      Cu  0.56334788  0.15769098  0.18125931     0.42000
Cu514      Cu  0.53946513  0.24293574  0.18341984     0.43900
N515        N  0.56585263  0.26364280  0.14110690    -0.33200
N516        N  0.55045047  0.27360135  0.15785947    -0.27400
C517        C  0.54405546  0.30634924  0.15570530    -0.03500
C518        C  0.55599215  0.31781769  0.13665560     0.08700
C519        C  0.56962744  0.28990630  0.12782211     0.02500
H520        H  0.53230422  0.32087995  0.16754320     0.10200
H521        H  0.58141460  0.28862662  0.11282020     0.09200
N522        N  0.53106691  0.20837796  0.20743927    -0.34600
N523        N  0.53938828  0.17671263  0.20652975    -0.26800
C524        C  0.53117747  0.16100628  0.22464588    -0.02000
C525        C  0.51702705  0.18401357  0.23775469     0.06600
C526        C  0.51753273  0.21381913  0.22620917     0.04700
H527        H  0.53548670  0.13484260  0.22794708     0.09800
H528        H  0.50969057  0.23813595  0.23130912     0.08600
C529        C  0.56922680  0.51126654  0.10360501     0.04700
C530        C  0.56985771  0.47876903  0.11233008    -0.11500
C531        C  0.55301035  0.45313708  0.10321437     0.02200
C532        C  0.53559255  0.45995396  0.08526718    -0.10000
C533        C  0.53516980  0.49217811  0.07621077     0.04600
C534        C  0.55200105  0.51767240  0.08546008    -0.09400
H535        H  0.58307130  0.47350184  0.12635307     0.10200
H536        H  0.52284998  0.43999332  0.07810774     0.07800
H537        H  0.55163273  0.54261968  0.07853206     0.07600
N538        N  0.92877875  0.12919425  0.41405368    -0.25800
N539        N  0.91941094  0.15034916  0.42892923    -0.33600
C540        C  0.90290368  0.13350734  0.44309984     0.02600
C541        C  0.90212409  0.10018077  0.43697562     0.08600
C542        C  0.91879780  0.09829631  0.41856509    -0.04500
H543        H  0.89243742  0.14467168  0.45693008     0.09300
H544        H  0.92266189  0.07629298  0.40878411     0.10500
Cu545      Cu  0.92970672  0.20099013  0.43007179     0.44200
Cu546      Cu  0.95240387  0.14287680  0.38706986     0.42000
Cu547      Cu  0.97193036  0.22950878  0.38530580     0.43900
N548        N  0.94662863  0.24908523  0.42798954    -0.33200
N549        N  0.96303930  0.25889182  0.41179292    -0.27400
C550        C  0.97085478  0.29096915  0.41480604    -0.03500
C551        C  0.95845722  0.30236028  0.43375289     0.08700
C552        C  0.94330751  0.27489320  0.44171327     0.02500
H553        H  0.98439995  0.30485610  0.40377211     0.10200
H554        H  0.93001871  0.27389629  0.45601632     0.09200
N555        N  0.97590101  0.19772569  0.35930269    -0.34600
N556        N  0.96977250  0.16536205  0.35993471    -0.26800
C557        C  0.97408060  0.15207721  0.34028841    -0.02000
C558        C  0.98289416  0.17759240  0.32669419     0.06600
C559        C  0.98379764  0.20610613  0.33928088     0.04700
H560        H  0.96993427  0.12619934  0.33602886     0.09800
H561        H  0.98952934  0.23120878  0.33421294     0.08600
C562        C  0.94402216  0.49583372  0.46658261     0.04700
C563        C  0.94349447  0.46282598  0.45868497    -0.11500
C564        C  0.96116424  0.43779760  0.46788399     0.02200
C565        C  0.97944475  0.44606181  0.48516262    -0.10000
C566        C  0.97986175  0.47877477  0.49344882     0.04600
C567        C  0.96211263  0.50348744  0.48410948    -0.09400
H568        H  0.92950109  0.45666198  0.44524774     0.10200
H569        H  0.99321437  0.42696548  0.49228985     0.07800
H570        H  0.96237826  0.52876167  0.49054216     0.07600
N571        N  0.58019644  0.85893779  0.65193922    -0.25800
N572        N  0.58862894  0.83906054  0.63609536    -0.33600
C573        C  0.60616425  0.85635886  0.62286496     0.02600
C574        C  0.60910012  0.88859873  0.63082104     0.08600
C575        C  0.59232814  0.88930697  0.64926843    -0.04500
H576        H  0.61684780  0.84579971  0.60892422     0.09300
H577        H  0.58927306  0.91026450  0.66009147     0.10500
Cu578      Cu  0.57779737  0.78876269  0.63357581     0.44200
Cu579      Cu  0.55384163  0.84413731  0.67723322     0.42000
Cu580      Cu  0.53099391  0.75804623  0.67535667     0.43900
N581        N  0.56422307  0.73929081  0.63551829    -0.33200
N582        N  0.54632180  0.72837235  0.65052289    -0.27400
C583        C  0.54178623  0.69537726  0.64767829    -0.03500
C584        C  0.55786945  0.68466413  0.63009508     0.08700
C585        C  0.57181608  0.71342090  0.62282168     0.02500
H586        H  0.52775175  0.68048252  0.65780265     0.10200
H587        H  0.58704345  0.71544065  0.60966666     0.09200
N588        N  0.52257879  0.78961506  0.70102308    -0.34600
N589        N  0.53054334  0.82139664  0.70172783    -0.26800
C590        C  0.52347821  0.83415683  0.72104496    -0.02000
C591        C  0.51066287  0.80902308  0.73329319     0.06600
C592        C  0.51055959  0.78115825  0.71989441     0.04700
H593        H  0.52795360  0.85971008  0.72580459     0.09800
H594        H  0.50373458  0.75595588  0.72381203     0.08600
C595        C  0.58289079  0.49163573  0.59667350     0.04700
C596        C  0.56718315  0.48472002  0.57779042    -0.11500
C597        C  0.55007703  0.50959000  0.56800314     0.02200
C598        C  0.54919757  0.54185621  0.57694775    -0.10000
C599        C  0.56508660  0.54947808  0.59555891     0.04600
C600        C  0.58171474  0.52416442  0.60545267    -0.09400
H601        H  0.56801111  0.45983810  0.57078992     0.10200
H602        H  0.53593946  0.56107660  0.56943428     0.07800
H603        H  0.59372020  0.52980739  0.61998217     0.07600
N604        N  0.92933025  0.86382988  0.91103024    -0.25800
N605        N  0.92406020  0.84483957  0.92797133    -0.33600
C606        C  0.90926214  0.86286279  0.94259334     0.02600
C607        C  0.90488134  0.89483979  0.93450206     0.08600
C608        C  0.91800423  0.89449897  0.91445126    -0.04500
H609        H  0.90132778  0.85290873  0.95764358     0.09300
H610        H  0.91901744  0.91487484  0.90301471     0.10500
Cu611      Cu  0.93550521  0.79478457  0.93007933     0.44200
Cu612      Cu  0.94950788  0.84653133  0.88327758     0.42000
Cu613      Cu  0.96478416  0.75725303  0.88210410     0.43900
N614        N  0.94750733  0.74492294  0.92795200    -0.33200
N615        N  0.95830647  0.73105589  0.91040904    -0.27400
C616        C  0.96281052  0.69819336  0.91403873    -0.03500
C617        C  0.95424253  0.69101742  0.93485597     0.08700
C618        C  0.94473820  0.72131767  0.94318882     0.02500
H619        H  0.97065184  0.68063327  0.90211227     0.10200
H620        H  0.93612203  0.72592449  0.95907878     0.09200
N621        N  0.96987469  0.78872472  0.85591581    -0.34600
N622        N  0.96536880  0.82150329  0.85641565    -0.26800
C623        C  0.97090961  0.83431623  0.83683234    -0.02000
C624        C  0.97890272  0.80822796  0.82336334     0.06600
C625        C  0.97798457  0.77974252  0.83600506     0.04700
H626        H  0.96838165  0.86046710  0.83254975     0.09800
H627        H  0.98290187  0.75430694  0.83110706     0.08600
C628        C  0.93042779  0.50310846  0.97412206     0.04700
C629        C  0.93102422  0.53537215  0.96513049    -0.11500
C630        C  0.94864465  0.56033369  0.97415106     0.02200
C631        C  0.96534213  0.55328312  0.99239133    -0.10000
C632        C  0.96464242  0.52126548  0.00170978     0.04600
C633        C  0.94712522  0.49629356  0.99249883    -0.09400
H634        H  0.91853356  0.54078455  0.95077072     0.10200
H635        H  0.97875621  0.57281224  0.99936789     0.07800
H636        H  0.94685890  0.47133942  0.99941482     0.07600
N637        N  0.68084040  0.35580464  0.65593080    -0.25800
N638        N  0.67088552  0.33492108  0.64114415    -0.33600
C639        C  0.65310081  0.35190288  0.62782365     0.02600
C640        C  0.65202366  0.38508480  0.63443963     0.08600
C641        C  0.66998215  0.38663993  0.65223927    -0.04500
H642        H  0.64165855  0.34084977  0.61438905     0.09300
H643        H  0.67387590  0.40826697  0.66234089     0.10500
Cu644      Cu  0.68120753  0.28404192  0.64004083     0.44200
Cu645      Cu  0.70581904  0.34109267  0.68202436     0.42000
Cu646      Cu  0.72136921  0.25258169  0.68559048     0.43900
N647        N  0.69494119  0.23447356  0.64300788    -0.33200
N648        N  0.70950769  0.22314152  0.65980713    -0.27400
C649        C  0.71516379  0.19033506  0.65709770    -0.03500
C650        C  0.70366987  0.18036466  0.63757875     0.08700
C651        C  0.69101397  0.20907237  0.62907443     0.02500
H652        H  0.72722368  0.17509564  0.66839635     0.10200
H653        H  0.67943175  0.21130893  0.61401983     0.09200
N654        N  0.73070488  0.28639482  0.70969716    -0.34600
N655        N  0.72511212  0.31887046  0.70854696    -0.26800
C656        C  0.73248662  0.33336026  0.72729159    -0.02000
C657        C  0.74339756  0.30874905  0.74081012     0.06600
C658        C  0.74190483  0.27932247  0.72907149     0.04700
H659        H  0.72985864  0.35976935  0.73081949     0.09800
H660        H  0.74757293  0.25433592  0.73443540     0.08600
C661        C  0.68550488  0.99139097  0.59770955     0.04700
C662        C  0.68549030  0.02396887  0.60624847    -0.11500
C663        C  0.70639654  0.04756797  0.59985235     0.02200
C664        C  0.72692595  0.03859441  0.58416214    -0.10000
C665        C  0.72640933  0.00655930  0.57482944     0.04600
C666        C  0.70590542  0.98295725  0.58184553    -0.09400
H667        H  0.66906431  0.03099292  0.61789792     0.10200
H668        H  0.74312332  0.05661145  0.57902041     0.07800
H669        H  0.70627046  0.95780789  0.57521967     0.07600
N670        N  0.83668599  0.36575959  0.91375059    -0.25800
N671        N  0.84826495  0.34509842  0.92804560    -0.33600
C672        C  0.86602168  0.36254712  0.94103327     0.02600
C673        C  0.86538039  0.39578320  0.93478057     0.08600
C674        C  0.84651330  0.39701225  0.91749810    -0.04500
H675        H  0.87837823  0.35181794  0.95414201     0.09300
H676        H  0.84103279  0.41879100  0.90793944     0.10500
Cu677      Cu  0.83991044  0.29411439  0.92988371     0.44200
Cu678      Cu  0.81033784  0.35050295  0.88848722     0.42000
Cu679      Cu  0.79856678  0.26096125  0.88656009     0.43900
N680        N  0.82741236  0.24427623  0.92830002    -0.33200
N681        N  0.81183714  0.23221802  0.91225471    -0.27400
C682        C  0.80670867  0.19948906  0.91565492    -0.03500
C683        C  0.81973762  0.19038734  0.93482866     0.08700
C684        C  0.83272292  0.21946562  0.94240031     0.02500
H685        H  0.79470053  0.18348306  0.90478208     0.10200
H686        H  0.84471743  0.22256609  0.95721716     0.09200
N687        N  0.78803210  0.29320995  0.86189821    -0.34600
N688        N  0.79129960  0.32614561  0.86259895    -0.26800
C689        C  0.78370141  0.33913745  0.84342901    -0.02000
C690        C  0.77568596  0.31292979  0.83010096     0.06600
C691        C  0.77867247  0.28427525  0.84232748     0.04700
H692        H  0.78556862  0.36534694  0.83912795     0.09800
H693        H  0.77514715  0.25866164  0.83718501     0.08600
C694        C  0.83695671  0.00129156  0.97352657     0.04700
C695        C  0.81841476  0.99407134  0.99085667    -0.11500
C696        C  0.80075469  0.01920470  0.99984605     0.02200
C697        C  0.80129033  0.05164630  0.99113052    -0.10000
C698        C  0.81964929  0.05911366  0.97384831     0.04600
C699        C  0.83770826  0.03409698  0.96531822    -0.09400
H700        H  0.81747835  0.96881169  0.99725052     0.10200
H701        H  0.78725894  0.07101710  0.99766285     0.07800
H702        H  0.85206885  0.04015178  0.95208081     0.07600
N703        N  0.66748708  0.64930684  0.15895067    -0.25800
N704        N  0.65415935  0.67052635  0.14588790    -0.33600
C705        C  0.63510109  0.65349954  0.13367904     0.02600
C706        C  0.63666615  0.61995201  0.13923029     0.08600
C707        C  0.65744086  0.61818617  0.15525227    -0.04500
H708        H  0.62137793  0.66470103  0.12150420     0.09300
H709        H  0.66417735  0.59606957  0.16402787     0.10500
Cu710      Cu  0.66283830  0.72141177  0.14450322     0.44200
Cu711      Cu  0.69686292  0.66329516  0.18256095     0.42000
Cu712      Cu  0.71281776  0.75113297  0.18474531     0.43900
N713        N  0.67988537  0.76941357  0.14465818    -0.33200
N714        N  0.69892422  0.77985336  0.15908514    -0.27400
C715        C  0.70715864  0.81126149  0.15422583    -0.03500
C716        C  0.69246843  0.82116324  0.13590457     0.08700
C717        C  0.67527925  0.79404040  0.13029720     0.02500
H718        H  0.72246956  0.82590340  0.16351491     0.10200
H719        H  0.66102758  0.79201115  0.11652460     0.09200
N720        N  0.72344827  0.71803319  0.20907685    -0.34600
N721        N  0.71877448  0.68536622  0.20798470    -0.26800
C722        C  0.72717713  0.67108414  0.22657607    -0.02000
C723        C  0.73721577  0.69614586  0.24004867     0.06600
C724        C  0.73451363  0.72555012  0.22845059     0.04700
H725        H  0.72464149  0.64478082  0.23043044     0.09800
H726        H  0.73963314  0.75066274  0.23385878     0.08600
C727        C  0.68658172  0.00989268  0.09596911     0.04700
C728        C  0.70597293  0.01628924  0.07906144    -0.11500
C729        C  0.72288426  0.99031904  0.07027520     0.02200
C730        C  0.72035912  0.95773128  0.07861872    -0.10000
C731        C  0.70105980  0.95104093  0.09552693     0.04600
C732        C  0.68415645  0.97716597  0.10402650    -0.09400
H733        H  0.70798356  0.04152997  0.07276945     0.10200
H734        H  0.73352522  0.93761545  0.07204053     0.07800
H735        H  0.66924739  0.97204450  0.11709549     0.07600
N736        N  0.84748744  0.63389570  0.40795371    -0.25800
N737        N  0.85821392  0.65376488  0.42301428    -0.33600
C738        C  0.87523627  0.63563607  0.43619321     0.02600
C739        C  0.87504741  0.60266821  0.42929464     0.08600
C740        C  0.85715137  0.60238288  0.41138773    -0.04500
H741        H  0.88702323  0.64577047  0.44976473     0.09300
H742        H  0.85244038  0.58114310  0.40114127     0.10500
Cu743      Cu  0.84910236  0.70455131  0.42554889     0.44200
Cu744      Cu  0.82206752  0.65149902  0.38259246     0.42000
Cu745      Cu  0.80013116  0.73924217  0.38640983     0.43900
N746        N  0.83308635  0.75309286  0.42719760    -0.33200
N747        N  0.81432290  0.76551264  0.41320651    -0.27400
C748        C  0.80735533  0.79700587  0.41906247    -0.03500
C749        C  0.82260775  0.80486518  0.43758967     0.08700
C750        C  0.83874776  0.77640147  0.44224523     0.02500
H751        H  0.79280732  0.81324609  0.41017430     0.10200
H752        H  0.85325499  0.77267719  0.45572506     0.09200
N753        N  0.79134792  0.70875066  0.36017363    -0.34600
N754        N  0.79921061  0.67691207  0.35865988    -0.26800
C755        C  0.79101386  0.66509847  0.33931772    -0.02000
C756        C  0.77731112  0.69073780  0.32805175     0.06600
C757        C  0.77805084  0.71801031  0.34188806     0.04700
H758        H  0.79482754  0.63967035  0.33394238     0.09800
H759        H  0.77041980  0.74320478  0.33870343     0.08600
C760        C  0.83936525  0.99266661  0.47837364     0.04700
C761        C  0.82224417  0.99939182  0.49655478    -0.11500
C762        C  0.80490127  0.97424029  0.50562597     0.02200
C763        C  0.80522945  0.94187250  0.49683088    -0.10000
C764        C  0.82283863  0.93451547  0.47907935     0.04600
C765        C  0.83981699  0.95998750  0.46987920    -0.09400
H766        H  0.82179239  0.02443692  0.50334275     0.10200
H767        H  0.79176988  0.92240826  0.50381607     0.07800
H768        H  0.85250333  0.95460286  0.45562186     0.07600
C769        C  0.79638249  0.85546911  0.45167396     0.25100
C770        C  0.82242462  0.83718585  0.44932134    -0.23000
C771        C  0.84839258  0.85051713  0.45776005     0.20000
C772        C  0.84846891  0.88207554  0.46761565     0.25100
C773        C  0.82255256  0.90057269  0.46951399    -0.22900
C774        C  0.79642909  0.88679552  0.46180552     0.20000
F775        F  0.77106610  0.90413469  0.46356266    -0.12900
F776        F  0.77077430  0.84283724  0.44441587    -0.15300
F777        F  0.87385573  0.89459332  0.47538361    -0.15300
F778        F  0.87393186  0.83362450  0.45577477    -0.12900
C779        C  0.73346735  0.71348335  0.27838441     0.25100
C780        C  0.74624116  0.69297827  0.26267953    -0.23000
C781        C  0.76809529  0.67020015  0.26866566     0.20000
C782        C  0.77797494  0.66896562  0.28994501     0.25100
C783        C  0.76573899  0.69017148  0.30571340    -0.22900
C784        C  0.74285269  0.71186643  0.29970890     0.20000
F785        F  0.72908303  0.73120507  0.31450204    -0.12900
F786        F  0.71144011  0.73472450  0.27312371    -0.15300
F787        F  0.80038609  0.64807860  0.29477693    -0.15300
F788        F  0.78084549  0.65026096  0.25368220    -0.12100
C789        C  0.72199927  0.86944041  0.12250324     0.25100
C790        C  0.69477927  0.85374439  0.12479245    -0.23000
C791        C  0.66974243  0.86975503  0.11678441     0.20000
C792        C  0.67183974  0.90117916  0.10695177     0.25100
C793        C  0.69902319  0.91701088  0.10484954    -0.22900
C794        C  0.72410894  0.90077005  0.11256471     0.20000
F795        F  0.75056248  0.91575218  0.11111340    -0.12900
F796        F  0.74664846  0.85429150  0.12967240    -0.15300
F797        F  0.64728841  0.91619249  0.09947924    -0.15300
F798        F  0.64308160  0.85561138  0.11922075    -0.12900
C799        C  0.74201037  0.97827716  0.03340662     0.25100
C800        C  0.74322791  0.99731220  0.05240423    -0.23000
C801        C  0.76376792  0.02332234  0.05412312     0.20000
C802        C  0.78257052  0.03035767  0.03706855     0.25100
C803        C  0.78122296  0.01142411  0.01804137    -0.22900
C804        C  0.76087454  0.98525138  0.01638751     0.20000
F805        F  0.75865626  0.96711668  0.99800219    -0.12900
F806        F  0.72191100  0.95360020  0.03106347    -0.15300
F807        F  0.80249942  0.05525438  0.03928532    -0.15300
F808        F  0.76600596  0.04149038  0.07249856    -0.12900
C809        C  0.79476261  0.10451904  0.95328540     0.25100
C810        C  0.81948247  0.09289545  0.96425496    -0.23000
C811        C  0.84425767  0.11330675  0.96557071     0.20000
C812        C  0.84431503  0.14512233  0.95612059     0.25100
C813        C  0.81962336  0.15685810  0.94500828    -0.22900
C814        C  0.79485801  0.13616802  0.94361542     0.20000
F815        F  0.77049391  0.14678230  0.93328947    -0.12900
F816        F  0.77070604  0.08492104  0.95163314    -0.15300
F817        F  0.86885280  0.16396248  0.95727965    -0.15300
F818        F  0.86833809  0.10242420  0.97614265    -0.12900
C819        C  0.77700944  0.00144063  0.56008860     0.25100
C820        C  0.74677749  0.99794941  0.55731509    -0.23000
C821        C  0.73589530  0.98662651  0.53750308     0.20000
C822        C  0.75490733  0.97883121  0.52075082     0.25100
C823        C  0.78508468  0.98227401  0.52351923    -0.22900
C824        C  0.79604446  0.99377385  0.54324924     0.20000
F825        F  0.82517766  0.99698162  0.54628954    -0.12900
F826        F  0.78808276  0.01158766  0.57923084    -0.15300
F827        F  0.74384003  0.96880713  0.50157595    -0.15300
F828        F  0.70676611  0.98402352  0.53419184    -0.12900
C829        C  0.77598849  0.29209704  0.77109434     0.25100
C830        C  0.75304846  0.31215412  0.76335426    -0.23000
C831        C  0.73869347  0.33411308  0.77758958     0.20000
C832        C  0.74665145  0.33520805  0.79928694     0.25100
C833        C  0.76882978  0.31420114  0.80704122    -0.22900
C834        C  0.78369431  0.29301116  0.79274893     0.20000
F835        F  0.80593639  0.27335955  0.79975058    -0.12900
F836        F  0.79120803  0.27177008  0.75765984    -0.15300
F837        F  0.73167331  0.35542114  0.81293664    -0.15300
F838        F  0.71595542  0.35316004  0.77081722    -0.12900
C839        C  0.70743797  0.14236279  0.60559537     0.25100
C840        C  0.70480235  0.14639027  0.62795113    -0.23000
C841        C  0.70331910  0.11763536  0.64103024     0.20000
C842        C  0.70431083  0.08559344  0.63192771     0.25100
C843        C  0.70650422  0.08158597  0.60953452    -0.22900
C844        C  0.70816381  0.11031025  0.59647678     0.20000
F845        F  0.70975627  0.10742636  0.57479016    -0.12900
F846        F  0.70989500  0.16943672  0.59251502    -0.15300
F847        F  0.70341186  0.05843451  0.64508326    -0.15300
F848        F  0.70005186  0.12040056  0.66261797    -0.12900
C849        C  0.88373536  0.47984182  0.95948580     0.25100
C850        C  0.91362564  0.47596659  0.96373370    -0.23000
C851        C  0.92759845  0.44588678  0.95793694     0.20000
C852        C  0.91188344  0.41988586  0.94840050     0.25100
C853        C  0.88199762  0.42365786  0.94428428    -0.22900
C854        C  0.86806328  0.45390529  0.94970506     0.20000
F855        F  0.83906692  0.45781781  0.94626989    -0.12900
F856        F  0.86956416  0.50830514  0.96540581    -0.15300
F857        F  0.92604409  0.39132614  0.94265603    -0.15300
F858        F  0.95665693  0.44197704  0.96110970    -0.12900
C859        C  0.88779474  0.92670788  0.96696508     0.25100
C860        C  0.88804260  0.92249861  0.94451461    -0.23000
C861        C  0.87156611  0.94460256  0.93172667     0.20000
C862        C  0.85511684  0.97018391  0.94115167     0.25100
C863        C  0.85486420  0.97440934  0.96358266    -0.22900
C864        C  0.87147788  0.95247816  0.97638396     0.20000
F865        F  0.87245811  0.95643584  0.99802599    -0.12900
F866        F  0.90390427  0.90642170  0.97984465    -0.15300
F867        F  0.83859227  0.99011059  0.92831306    -0.15300
F868        F  0.87031039  0.94070102  0.91010107    -0.12900
C869        C  0.97512460  0.63374455  0.94136438     0.25100
C870        C  0.95320420  0.65771483  0.94529470    -0.23000
C871        C  0.92992136  0.64933174  0.95898937     0.20000
C872        C  0.92841270  0.61749296  0.96829679     0.25100
C873        C  0.95020428  0.59371897  0.96423733    -0.22900
C874        C  0.97367094  0.60201180  0.95087916     0.20000
F875        F  0.99507624  0.57925747  0.94701136    -0.12900
F876        F  0.99828135  0.64124004  0.92872334    -0.15300
F877        F  0.90569357  0.60980817  0.98132108    -0.15300
F878        F  0.90808962  0.67150739  0.96285541    -0.12900
C879        C  0.62944682  0.47052786  0.61332548     0.25100
C880        C  0.60038270  0.46474142  0.60714266    -0.23000
C881        C  0.58827254  0.43274830  0.61063759     0.20000
C882        C  0.60509474  0.40687051  0.61943538     0.25100
C883        C  0.63421817  0.41256291  0.62528456    -0.22900
C884        C  0.64611648  0.44474401  0.62245411     0.20000
F885        F  0.67426289  0.45091862  0.62779188    -0.12900
F886        F  0.64208070  0.50082180  0.60986206    -0.15300
F887        F  0.59260584  0.37647884  0.62284691    -0.15300
F888        F  0.55988697  0.42669725  0.60596556    -0.12900
C889        C  0.98090497  0.78707453  0.76419420     0.25100
C890        C  0.50136691  0.81032665  0.75622635    -0.23000
C891        C  0.51342685  0.83390561  0.77063995     0.20000
C892        C  0.50544660  0.83388892  0.79234923     0.25100
C893        C  0.98591115  0.80983763  0.80024194    -0.22900
C894        C  0.97363262  0.78656883  0.78597384     0.20000
F895        F  0.95402090  0.76364748  0.79305565    -0.12900
F896        F  0.96739757  0.76500404  0.75094282    -0.15300
F897        F  0.51792744  0.85640178  0.80587278    -0.15300
F898        F  0.53392253  0.85612851  0.76411436    -0.12900
C899        C  0.64905235  0.94526738  0.59193731     0.25100
C900        C  0.66499168  0.96584841  0.60603379    -0.23000
C901        C  0.66185287  0.96129412  0.62831116     0.20000
C902        C  0.64336390  0.93654540  0.63634149     0.25100
C903        C  0.62778422  0.91561781  0.62226906    -0.22900
C904        C  0.63073029  0.92025979  0.59998940     0.20000
F905        F  0.61539166  0.90106814  0.58598193    -0.12900
F906        F  0.65081481  0.94972766  0.57036497    -0.15300
F907        F  0.64179499  0.93211349  0.65791549    -0.15300
F908        F  0.67759118  0.97996063  0.64237878    -0.12900
C909        C  0.56716073  0.64447865  0.59958714     0.25100
C910        C  0.56016841  0.64994744  0.62135045    -0.23000
C911        C  0.55530985  0.62179506  0.63462235     0.20000
C912        C  0.55703076  0.58923130  0.62628799     0.25100
C913        C  0.56400949  0.58394225  0.60459614    -0.22900
C914        C  0.56922405  0.61188569  0.59137800     0.20000
F915        F  0.57658323  0.60763418  0.57043991    -0.12900
F916        F  0.57125312  0.67058013  0.58594516    -0.15300
F917        F  0.55113129  0.56284521  0.63935949    -0.15300
F918        F  0.54936973  0.62548038  0.65582292    -0.12900
C919        C  0.93915314  0.55323568  0.45054884     0.25100
C920        C  0.92618425  0.52259738  0.45636743    -0.23000
C921        C  0.89619276  0.51806686  0.45257509     0.20000
C922        C  0.87952988  0.54387995  0.44338605     0.25100
C923        C  0.89249830  0.57472841  0.43814633    -0.22900
C924        C  0.92242232  0.57912714  0.44176050     0.20000
F925        F  0.93564252  0.60834305  0.43628583    -0.12900
F926        F  0.96824303  0.55788821  0.45297060    -0.15300
F927        F  0.85053081  0.53924245  0.44041278    -0.15300
F928        F  0.88283114  0.48910787  0.45842045    -0.12900
C929        C  0.98526297  0.50048493  0.53087091     0.25100
C930        C  0.99813635  0.48691901  0.51233798    -0.23000
C931        C  0.52831981  0.48084039  0.51213478     0.20000
C932        C  0.54530261  0.48819604  0.53022248     0.25100
C933        C  0.53235064  0.50173289  0.54877002    -0.22900
C934        C  0.50219460  0.50783143  0.54890589     0.20000
F935        F  0.98898371  0.52011095  0.56675633    -0.12900
F936        F  0.95607501  0.50573489  0.53171029    -0.15300
F937        F  0.57448763  0.48286733  0.52946064    -0.15300
F938        F  0.54142425  0.46848500  0.49425930    -0.12900
C939        C  0.85685360  0.07693253  0.45323944     0.25100
C940        C  0.88615213  0.07267120  0.44745419    -0.23000
C941        C  0.90002749  0.04192720  0.45163407     0.20000
C942        C  0.88495419  0.01595598  0.46182751     0.25100
C943        C  0.85558192  0.02015643  0.46768923    -0.22900
C944        C  0.84160591  0.05081545  0.46306947     0.20000
F945        F  0.81290097  0.05517450  0.46748366    -0.12900
F946        F  0.84268340  0.10600820  0.44868100    -0.15300
F947        F  0.89929156  0.98702364  0.46644929    -0.15300
F948        F  0.92847199  0.03742987  0.44645146    -0.12900
C949        C  0.96342928  0.36477760  0.42894723     0.25100
C950        C  0.95957782  0.33697059  0.44266011    -0.23000
C951        C  0.95645726  0.34275319  0.46487016     0.20000
C952        C  0.95691254  0.37546657  0.47306919     0.25100
C953        C  0.96073912  0.40307909  0.45929717    -0.22900
C954        C  0.96417070  0.39735258  0.43720100     0.20000
F955        F  0.96865818  0.42337016  0.42353140    -0.12900
F956        F  0.96566907  0.36081611  0.40738208    -0.15300
F957        F  0.95302292  0.38017968  0.49446947    -0.15300
F958        F  0.95346429  0.31681701  0.47880540    -0.12900
C959        C  0.57305984  0.56958401  0.11826464     0.25100
C960        C  0.58642600  0.53873836  0.11331275    -0.23000
C961        C  0.61640119  0.53472690  0.11711160     0.20000
C962        C  0.63273049  0.56113816  0.12564567     0.25100
C963        C  0.61940312  0.59205737  0.13034034    -0.22900
C964        C  0.58944428  0.59608080  0.12657271     0.20000
F965        F  0.57583457  0.62535861  0.13150729    -0.12900
F966        F  0.54397400  0.57385556  0.11543076    -0.15300
F967        F  0.66179735  0.55690592  0.12855692    -0.15300
F968        F  0.63007664  0.50562655  0.11186820    -0.12900
C969        C  0.52967958  0.51416778  0.03879183     0.25100
C970        C  0.51717310  0.49934455  0.05707148    -0.23000
C971        C  0.48730735  0.49178124  0.05706230     0.20000
C972        C  0.97020023  0.49891789  0.03907365     0.25100
C973        C  0.98270147  0.51369891  0.02077578    -0.22900
C974        C  0.51260843  0.52119270  0.02077809     0.20000
F975        F  0.52545562  0.53456649  0.00311899    -0.12900
F976        F  0.55858740  0.52118445  0.03820266    -0.15300
F977        F  0.94124457  0.49222705  0.03975251    -0.15300
F978        F  0.97453131  0.47838942  0.07473758    -0.12900
C979        C  0.51779489  0.15460781  0.27373383     0.25100
C980        C  0.50581784  0.17916048  0.25994363    -0.23000
C981        C  0.98389977  0.20050768  0.26800435     0.20000
C982        C  0.97591325  0.19921586  0.28960062     0.25100
C983        C  0.48892441  0.17590942  0.30348730    -0.22900
C984        C  0.50914132  0.15282980  0.29527438     0.20000
F985        F  0.52187743  0.12993406  0.30842255    -0.12900
F986        F  0.53902006  0.13347745  0.26686781    -0.15300
F987        F  0.95535445  0.22084523  0.29698895    -0.15300
F988        F  0.97000609  0.22271745  0.25503472    -0.12900
C989        C  0.65177775  0.06785563  0.13682331     0.25100
C990        C  0.63543194  0.08950139  0.12362532    -0.23000
C991        C  0.63604619  0.08479760  0.10125315     0.20000
C992        C  0.65260614  0.05888608  0.09225470     0.25100
C993        C  0.66907719  0.03740899  0.10544578    -0.22900
C994        C  0.66856492  0.04221012  0.12781210     0.20000
F995        F  0.68490285  0.02254571  0.14095128    -0.12900
F996        F  0.65223239  0.07205626  0.15845134    -0.15300
F997        F  0.65182639  0.05412979  0.07067663    -0.15300
F998        F  0.61975523  0.10447108  0.08811507    -0.12900
C999        C  0.53060740  0.40664722  0.12427623     0.25100
C1000       C  0.55395692  0.41892362  0.11213805    -0.23000
C1001       C  0.57795740  0.39813991  0.10806138     0.20000
C1002       C  0.57861594  0.36527265  0.11593049     0.25100
C1003       C  0.55521705  0.35264704  0.12812604    -0.22900
C1004       C  0.53121818  0.37383630  0.13228320     0.20000
F1005       F  0.50794386  0.36264862  0.14360415    -0.12900
F1006       F  0.50723571  0.42654154  0.12839885    -0.15300
F1007       F  0.60253900  0.34621281  0.11204172    -0.15300
F1008       F  0.60065252  0.40965314  0.09622689    -0.12900
loop_ 
_geom_bond_atom_site_label_1 
_geom_bond_atom_site_label_2 
_geom_bond_distance 
_geom_bond_site_symmetry_2 
_ccdc_geom_bond_type 
N1            N2   1.323       .  A
N1            C5   1.342       .  A
N1           Cu9   2.065       .  S
N2            C3   1.346       .  A
N2           Cu8   2.083       .  S
C3            C4   1.387       .  A
C3            H6   1.082       .  S
C4            C5   1.382       .  A
C4          C486   1.479       .  S
C5            H7   1.082       .  S
Cu8          N11   2.083       .  S
Cu9          N19   2.065       .  S
Cu10         N12   2.071       .  S
Cu10         N18   2.071       .  S
N11          N12   1.322       .  A
N11          C15   1.346       .  A
N12          C13   1.344       .  A
C13          C14   1.386       .  A
C13          H16   1.081       .  S
C14          C15   1.389       .  A
C14         C499   1.487       .  S
C15          H17   1.081       .  S
N18          N19   1.319       .  A
N18          C22   1.342       .  A
N19          C20   1.345       .  A
C20          C21   1.388       .  A
C20          H23   1.081       .  S
C21          C22   1.389       .  A
C21         C476   1.488       .  S
C22          H24   1.081       .  S
C25          C26   1.405       .  A
C25          C30   1.403       .  A
C25         C456   1.480       .  S
C26          C27   1.402       .  A
C26          H31   1.084       .  S
C27          C28   1.401       .  A
C27         C496   1.473       .  S
C28          C29   1.403       .  A
C28          H32   1.084       .  S
C29          C30   1.401       .  A
C29         C466   1.478       .  S
C30          H33   1.084       .  S
N34          N35   1.324       .  A
N34          C38   1.344       .  A
N34         Cu42   2.075       .  S
N35          C36   1.344       .  A
N35         Cu41   2.075       .  S
C36          C37   1.382       .  A
C36          H39   1.082       .  S
C37          C38   1.381       .  A
C37         C436   1.473       .  S
C38          H40   1.082       .  S
Cu41         N44   2.073       .  S
Cu42         N52   2.074       .  S
Cu43         N45   2.063       .  S
Cu43         N51   2.064       .  S
N44          N45   1.320       .  A
N44          C48   1.346       .  A
N45          C46   1.341       .  A
C46          C47   1.387       .  A
C46          H49   1.081       .  S
C47          C48   1.390       .  A
C47         C446   1.487       .  S
C48          H50   1.081       .  S
N51          N52   1.321       .  A
N51          C55   1.342       .  A
N52          C53   1.348       .  A
C53          C54   1.385       .  A
C53          H56   1.082       .  S
C54          C55   1.381       .  A
C54         C983   1.474       .  S
C55          H57   1.082       .  S
C58          C59   1.404       .  A
C58          C63   1.405       .  A
C58         C416   1.487       .  S
C59          C60   1.407       .  A
C59          H64   1.083       .  S
C60          C61   1.404       .  A
C60         C449   1.483       .  S
C61          C62   1.402       .  A
C61          H65   1.084       .  S
C62          C63   1.404       .  A
C62         C426   1.481       .  S
C63          H66   1.084       .  S
N67          N68   1.323       .  A
N67          C71   1.344       .  A
N67         Cu75   2.074       .  S
N68          C69   1.344       .  A
N68         Cu74   2.072       .  S
C69          C70   1.384       .  A
C69          H72   1.082       .  S
C70          C71   1.384       .  A
C70         C399   1.478       .  S
C71          H73   1.082       .  S
Cu74         N77   2.072       .  S
Cu75         N85   2.074       .  S
Cu76         N78   2.070       .  S
Cu76         N84   2.070       .  S
N77          N78   1.320       .  A
N77          C81   1.345       .  A
N78          C79   1.343       .  A
C79          C80   1.388       .  A
C79          H82   1.081       .  S
C80          C81   1.390       .  A
C80         C406   1.490       .  S
C81          H83   1.081       .  S
N84          N85   1.320       .  A
N84          C88   1.342       .  A
N85          C86   1.346       .  A
C86          C87   1.391       .  A
C86          H89   1.080       .  S
C87          C88   1.389       .  A
C87         C386   1.492       .  S
C88          H90   1.081       .  S
C91          C92   1.407       .  A
C91          C96   1.408       .  A
C91         C376   1.489       .  S
C92          C93   1.403       .  A
C92          H97   1.084       .  S
C93          C94   1.402       .  A
C93         C429   1.482       .  S
C94          C95   1.403       .  A
C94          H98   1.084       .  S
C95          C96   1.406       .  A
C95         C409   1.485       .  S
C96          H99   1.083       .  S
N100        N101   1.322       .  A
N100        C104   1.344       .  A
N100       Cu108   2.079       .  S
N101        C102   1.344       .  A
N101       Cu107   2.066       .  S
C102        C103   1.385       .  A
C102        H105   1.082       .  S
C103        C104   1.387       .  A
C103        C356   1.483       .  S
C104        H106   1.081       .  S
Cu107       N110   2.065       .  S
Cu108       N118   2.079       .  S
Cu109       N111   2.071       .  S
Cu109       N117   2.072       .  S
N110        N111   1.321       .  A
N110        C114   1.343       .  A
N111        C112   1.345       .  A
C112        C113   1.385       .  A
C112        H115   1.082       .  S
C113        C114   1.384       .  A
C113        C366   1.479       .  S
C114        H116   1.082       .  S
N117        N118   1.322       .  A
N117        C121   1.343       .  A
N118        C119   1.347       .  A
C119        C120   1.385       .  A
C119        H122   1.082       .  S
C120        C121   1.382       .  A
C120        C389   1.477       .  S
C121        H123   1.082       .  S
C124        C125   1.403       .  A
C124        C129   1.404       .  A
C124        C346   1.478       .  S
C125        C126   1.401       .  A
C125        H130   1.084       .  S
C126        C127   1.399       .  A
C126        C369   1.469       .  S
C127        C128   1.402   1_556  A
C127        H131   1.084       .  S
C128        C129   1.403   1_554  A
C128        C469   1.479       .  S
C129        H132   1.084       .  S
N133        N134   1.323       .  A
N133        C137   1.345       .  A
N133       Cu141   2.073       .  S
N134        C135   1.346       .  A
N134       Cu140   2.082       .  S
C135        C136   1.386       .  A
C135        H138   1.082       .  S
C136        C137   1.383       .  A
C136        C379   1.480       .  S
C137        H139   1.082       .  S
Cu140       N143   2.081       .  S
Cu141       N151   2.073       .  S
Cu142       N144   2.062       .  S
Cu142       N150   2.062       .  S
N143        N144   1.321       .  A
N143        C147   1.345       .  A
N144        C145   1.343       .  A
C145        C146   1.384       .  A
C145        H148   1.082       .  S
C146        C147   1.387       .  A
C146        C336   1.481       .  S
C147        H149   1.082       .  S
N150        N151   1.321       .  A
N150        C154   1.342       .  A
N151        C152   1.346       .  A
C152        C153   1.386       .  A
C152        H155   1.082       .  S
C153        C154   1.383       .  A
C153        C326   1.479       .  S
C154        H156   1.082       .  S
C157        C158   1.403   1_565  A
C157        C162   1.403       .  A
C157        C396   1.482       .  S
C158        C159   1.403       .  A
C158        H163   1.084       .  S
C159        C160   1.404       .  A
C159        C339   1.483       .  S
C160        C161   1.403       .  A
C160        H164   1.083       .  S
C161        C162   1.402   1_545  A
C161        C316   1.478   1_545  S
C162        H165   1.084       .  S
N166        N167   1.324       .  A
N166        C170   1.346       .  A
N166       Cu174   2.076       .  S
N167        C168   1.343       .  A
N167       Cu173   2.071       .  S
C168        C169   1.381       .  A
C168        H171   1.082       .  S
C169        C170   1.383       .  A
C169        C349   1.473       .  S
C170        H172   1.082       .  S
Cu173       N176   2.070       .  S
Cu174       N184   2.075       .  S
Cu175       N177   2.060       .  S
Cu175       N183   2.060       .  S
N176        N177   1.320       .  A
N176        C180   1.345       .  A
N177        C178   1.343       .  A
C178        C179   1.384       .  A
C178        H181   1.082       .  S
C179        C180   1.387       .  A
C179        C309   1.479       .  S
C180        H182   1.082       .  S
N183        N184   1.322       .  A
N183        C187   1.341       .  A
N184        C185   1.347       .  A
C185        C186   1.384       .  A
C185        H188   1.082       .  S
C186        C187   1.379       .  A
C186        C329   1.471       .  S
C187        H189   1.082       .  S
C190        C191   1.406   1_545  A
C190        C195   1.404       .  A
C190        C359   1.485   1_545  S
C191        C192   1.404   1_565  A
C191        H196   1.084       .  S
C192        C193   1.403       .  A
C192        C299   1.479   1_556  S
C193        C194   1.400       .  A
C193        H197   1.084       .  S
C194        C195   1.401       .  A
C194        C306   1.473       .  S
C195        H198   1.084       .  S
N199        N200   1.323       .  A
N199        C203   1.344       .  A
N199       Cu207   2.072       .  S
N200        C201   1.344       .  A
N200       Cu206   2.069       .  S
C201        C202   1.383       .  A
C201        H204   1.082       .  S
C202        C203   1.382       .  A
C202        C459   1.474       .  S
C203        H205   1.082       .  S
Cu206       N209   2.068       .  S
Cu207       N217   2.072       .  S
Cu208       N210   2.066       .  S
Cu208       N216   2.067       .  S
N209        N210   1.321       .  A
N209        C213   1.345       .  A
N210        C211   1.343       .  A
C211        C212   1.383       .  A
C211        H214   1.082       .  S
C212        C213   1.384       .  A
C212        C286   1.476       .  S
C213        H215   1.082       .  S
N216        N217   1.321       .  A
N216        C220   1.343       .  A
N217        C218   1.347       .  A
C218        C219   1.384       .  A
C218        H221   1.082       .  S
C219        C220   1.382       .  A
C219        C276   1.475       .  S
C220        H222   1.082       .  S
C223        C224   1.404       .  A
C223        C228   1.402   1_545  A
C223        C489   1.481       .  S
C224        C225   1.404   1_545  A
C224        H229   1.084       .  S
C225        C226   1.404       .  A
C225        C296   1.481       .  S
C226        C227   1.403       .  A
C226        H230   1.084       .  S
C227        C228   1.402       .  A
C227        C289   1.478       .  S
C228        H231   1.084       .  S
N232        N233   1.323       .  A
N232        C236   1.348       .  A
N232       Cu240   2.085       .  S
N233        C234   1.344       .  A
N233       Cu239   2.072       .  S
C234        C235   1.382       .  A
C234        H237   1.082       .  S
C235        C236   1.385       .  A
C235        C419   1.478       .  S
C236        H238   1.082       .  S
Cu239       N242   2.071       .  S
Cu240       N250   2.085       .  S
Cu241       N243   2.075       .  S
Cu241       N249   2.076       .  S
N242        N243   1.321       .  A
N242        C246   1.345       .  A
N243        C244   1.345       .  A
C244        C245   1.386       .  A
C244        H247   1.082       .  S
C245        C246   1.385       .  A
C245        C266   1.481       .  S
C246        H248   1.082       .  S
N249        N250   1.322       .  A
N249        C253   1.344       .  A
N250        C251   1.347       .  A
C251        C252   1.389       .  A
C251        H254   1.081       .  S
C252        C253   1.387       .  A
C252        C279   1.489       .  S
C253        H255   1.081       .  S
C256        C257   1.405       .  A
C256        C261   1.406       .  A
C256        C439   1.484   1_565  S
C257        C258   1.401       .  A
C257        H262   1.084   1_565  S
C258        C259   1.401       .  A
C258        C319   1.474       .  S
C259        C260   1.401       .  A
C259        H263   1.084       .  S
C260        C261   1.404       .  A
C260        C269   1.478       .  S
C261        H264   1.084       .  S
C265        C266   1.407       .  A
C265        C270   1.399       .  A
C265        F272   1.358       .  S
C266        C267   1.408       .  A
C267        C268   1.399       .  A
C267        F274   1.357       .  S
C268        C269   1.404       .  A
C268        F273   1.358       .  S
C269        C270   1.405       .  A
C270        F271   1.358       .  S
C275        C276   1.403       .  A
C275        C280   1.398       .  A
C275        F282   1.358       .  S
C276        C277   1.403       .  A
C277        C278   1.402       .  A
C277        F284   1.358       .  S
C278        C279   1.412       .  A
C278        F283   1.357       .  S
C279        C280   1.410       .  A
C280        F281   1.357       .  S
C285        C286   1.406       .  A
C285        C290   1.397       .  A
C285        F292   1.358       .  S
C286        C287   1.406       .  A
C287        C288   1.398       .  A
C287        F294   1.358       .  S
C288        C289   1.406       .  A
C288        F293   1.358       .  S
C289        C290   1.405       .  A
C290        F291   1.358       .  S
C295        C296   1.406       .  A
C295        C300   1.398       .  A
C295        F302   1.358       .  S
C296        C297   1.407   1_565  A
C297        C298   1.398       .  A
C297        F304   1.358       .  S
C298        C299   1.406       .  A
C298        F303   1.358       .  S
C299        C300   1.405   1_545  A
C300        F301   1.358   1_554  S
C305        C306   1.403       .  A
C305        C310   1.398       .  A
C305        F312   1.358       .  S
C306        C307   1.402       .  A
C307        C308   1.398       .  A
C307        F314   1.358       .  S
C308        C309   1.408       .  A
C308        F313   1.357       .  S
C309        C310   1.409       .  A
C310        F311   1.358       .  S
C315        C316   1.407   1_545  A
C315        C320   1.399   1_545  A
C315        F322   1.358       .  S
C316        C317   1.406       .  A
C317        C318   1.396       .  A
C317        F324   1.358       .  S
C318        C319   1.404       .  A
C318        F323   1.358       .  S
C319        C320   1.405       .  A
C320        F321   1.358       .  S
C325        C326   1.407       .  A
C325        C330   1.395       .  A
C325        F332   1.358       .  S
C326        C327   1.409       .  A
C327        C328   1.401       .  A
C327        F334   1.357       .  S
C328        C329   1.403       .  A
C328        F333   1.358       .  S
C329        C330   1.404       .  A
C330        F331   1.358       .  S
C335        C336   1.407       .  A
C335        C340   1.398       .  A
C335        F342   1.357       .  S
C336        C337   1.408       .  A
C337        C338   1.398       .  A
C337        F344   1.358       .  S
C338        C339   1.408       .  A
C338        F343   1.358       .  S
C339        C340   1.407       .  A
C340        F341   1.358       .  S
C345        C346   1.407       .  A
C345        C350   1.400       .  A
C345        F352   1.358       .  S
C346        C347   1.406       .  A
C347        C348   1.396       .  A
C347        F354   1.358       .  S
C348        C349   1.404       .  A
C348        F353   1.358       .  S
C349        C350   1.405       .  A
C350        F351   1.358       .  S
C355        C356   1.408       .  A
C355        C360   1.399       .  A
C355        F362   1.357       .  S
C356        C357   1.407       .  A
C357        C358   1.397       .  A
C357        F364   1.357       .  S
C358        C359   1.407       .  A
C358        F363   1.358       .  S
C359        C360   1.407       .  A
C360        F361   1.358       .  S
C365        C366   1.408       .  A
C365        C370   1.398       .  A
C365        F372   1.358       .  S
C366        C367   1.409       .  A
C367        C368   1.397       .  A
C367        F374   1.357       .  S
C368        C369   1.400       .  A
C368        F373   1.358       .  S
C369        C370   1.402       .  A
C370        F371   1.358       .  S
C375        C376   1.409       .  A
C375        C380   1.401       .  A
C375        F382   1.358       .  S
C376        C377   1.409       .  A
C377        C378   1.399       .  A
C377        F384   1.358       .  S
C378        C379   1.405       .  A
C378        F383   1.358       .  S
C379        C380   1.406       .  A
C380        F381   1.358       .  S
C385        C390   1.398       .  A
C385        C890   1.411       .  A
C385        F392   1.357       .  S
C386        C387   1.413       .  A
C386        C889   1.411   1_455  A
C387        C388   1.401       .  A
C387        F394   1.356       .  S
C388        C893   1.403   1_455  A
C388        F393   1.358       .  S
C389        C390   1.403       .  A
C389        C892   1.403       .  A
C390        F391   1.358       .  S
C395        C396   1.407       .  A
C395        C400   1.399       .  A
C395        F402   1.358       .  S
C396        C397   1.407       .  A
C397        C398   1.396       .  A
C397        F404   1.358       .  S
C398        C399   1.406       .  A
C398        F403   1.357       .  S
C399        C400   1.407       .  A
C400        F401   1.358       .  S
C405        C406   1.410       .  A
C405        C410   1.399       .  A
C405        F412   1.357       .  S
C406        C407   1.412       .  A
C407        C408   1.400       .  A
C407        F414   1.357       .  S
C408        C409   1.405       .  A
C408        F413   1.358       .  S
C409        C410   1.406       .  A
C410        F411   1.358       .  S
C415        C416   1.407       .  A
C415        C420   1.397       .  A
C415        F422   1.358       .  S
C416        C417   1.410       .  A
C417        C418   1.403       .  A
C417        F424   1.358       .  S
C418        C419   1.406       .  A
C418        F423   1.358       .  S
C419        C420   1.404       .  A
C420        F421   1.358       .  S
C425        C426   1.405       .  A
C425        C934   1.397       .  A
C425        F432   1.358       .  S
C426        C931   1.407       .  A
C427        C428   1.401       .  A
C427        C930   1.407   1_455  A
C427        F434   1.358       .  S
C428        C429   1.407       .  A
C428        F433   1.358       .  S
C429        C430   1.406       .  A
C430        C929   1.397   1_455  A
C430        F935   1.358   1_455  S
F431        C934   1.358       .  S
C435        C436   1.404       .  A
C435        C440   1.397       .  A
C435        F442   1.358       .  S
C436        C437   1.404       .  A
C437        C438   1.399       .  A
C437        F444   1.358       .  S
C438        C439   1.408       .  A
C438        F443   1.358   1_545  S
C439        C440   1.409       .  A
C440        F441   1.358       .  S
C445        C446   1.411       .  A
C445        C450   1.396       .  A
C445        F452   1.356       .  S
C446        C447   1.410       .  A
C447        C448   1.400       .  A
C447        F454   1.357       .  S
C448        C449   1.407       .  A
C448        F453   1.358       .  S
C449        C450   1.404       .  A
C450        F451   1.358       .  S
C455        C456   1.407       .  A
C455        C460   1.397       .  A
C455        F462   1.358       .  S
C456        C457   1.406       .  A
C457        C458   1.398       .  A
C457        F464   1.358       .  S
C458        C459   1.406       .  A
C458        F463   1.358       .  S
C459        C460   1.405       .  A
C460        F461   1.358       .  S
C465        C466   1.406       .  A
C465        C470   1.397       .  A
C465        F472   1.358       .  S
C466        C467   1.405   1_455  A
C467        C972   1.397       .  A
C467        F978   1.358       .  S
C468        C469   1.407       .  A
C468        C971   1.397       .  A
C468        F473   1.358       .  S
C469        C974   1.406       .  A
C470        C973   1.406   1_455  A
C470        F471   1.358       .  S
F474        C971   1.358       .  S
C475        C476   1.413       .  A
C475        C480   1.402       .  A
C475        F482   1.357       .  S
C476        C981   1.410   1_455  A
C477        C478   1.396       .  A
C477        C980   1.410       .  A
C477        F484   1.357       .  S
C478        C983   1.402       .  A
C478        F483   1.358       .  S
C479        C480   1.403   1_655  A
C479        C982   1.402       .  A
C479        C558   1.474       .  S
C480        F481   1.358       .  S
C485        C486   1.408       .  A
C485        C490   1.397       .  A
C485        F492   1.358       .  S
C486        C487   1.406       .  A
C487        C488   1.399       .  A
C487        F494   1.357       .  S
C488        C489   1.406       .  A
C488        F493   1.358       .  S
C489        C490   1.406       .  A
C490        F491   1.358       .  S
C495        C496   1.402       .  A
C495        C500   1.400       .  A
C495        F502   1.358       .  S
C496        C497   1.401       .  A
C497        C498   1.399       .  A
C497        F504   1.358       .  S
C498        C499   1.410       .  A
C498        F503   1.357       .  S
C499        C500   1.412       .  A
C500        F501   1.357       .  S
N505        N506   1.323       .  A
N505        C509   1.342       .  A
N505       Cu513   2.065       .  S
N506        C507   1.346       .  A
N506       Cu512   2.083       .  S
C507        C508   1.387       .  A
C507        H510   1.082       .  S
C508        C509   1.382       .  A
C508        C990   1.479       .  S
C509        H511   1.082       .  S
Cu512       N515   2.083       .  S
Cu513       N523   2.065       .  S
Cu514       N516   2.071       .  S
Cu514       N522   2.071       .  S
N515        N516   1.322       .  A
N515        C519   1.346       .  A
N516        C517   1.344       .  A
C517        C518   1.386       .  A
C517        H520   1.081       .  S
C518        C519   1.389       .  A
C518       C1003   1.487       .  S
C519        H521   1.081       .  S
N522        N523   1.319       .  A
N522        C526   1.342       .  A
N523        C524   1.345       .  A
C524        C525   1.388       .  A
C524        H527   1.081       .  S
C525        C526   1.389       .  A
C525        C980   1.488       .  S
C526        H528   1.081       .  S
C529        C530   1.405       .  A
C529        C534   1.403       .  A
C529        C960   1.480       .  S
C530        C531   1.402       .  A
C530        H535   1.084       .  S
C531        C532   1.401       .  A
C531       C1000   1.473       .  S
C532        C533   1.403       .  A
C532        H536   1.084       .  S
C533        C534   1.401       .  A
C533        C970   1.478       .  S
C534        H537   1.084       .  S
N538        N539   1.324       .  A
N538        C542   1.344       .  A
N538       Cu546   2.075       .  S
N539        C540   1.344       .  A
N539       Cu545   2.075       .  S
C540        C541   1.382       .  A
C540        H543   1.082       .  S
C541        C542   1.381       .  A
C541        C940   1.473       .  S
C542        H544   1.082       .  S
Cu545       N548   2.073       .  S
Cu546       N556   2.074       .  S
Cu547       N549   2.063       .  S
Cu547       N555   2.064       .  S
N548        N549   1.320       .  A
N548        C552   1.346       .  A
N549        C550   1.341       .  A
C550        C551   1.387       .  A
C550        H553   1.081       .  S
C551        C552   1.390       .  A
C551        C950   1.487       .  S
C552        H554   1.081       .  S
N555        N556   1.321       .  A
N555        C559   1.342       .  A
N556        C557   1.348       .  A
C557        C558   1.385       .  A
C557        H560   1.082       .  S
C558        C559   1.381       .  A
C559        H561   1.082       .  S
C562        C563   1.404       .  A
C562        C567   1.405       .  A
C562        C920   1.487       .  S
C563        C564   1.407       .  A
C563        H568   1.083       .  S
C564        C565   1.404       .  A
C564        C953   1.483       .  S
C565        C566   1.402       .  A
C565        H569   1.084       .  S
C566        C567   1.404       .  A
C566        C930   1.481       .  S
C567        H570   1.084       .  S
N571        N572   1.323       .  A
N571        C575   1.344       .  A
N571       Cu579   2.074       .  S
N572        C573   1.344       .  A
N572       Cu578   2.072       .  S
C573        C574   1.384       .  A
C573        H576   1.082       .  S
C574        C575   1.384       .  A
C574        C903   1.478       .  S
C575        H577   1.082       .  S
Cu578       N581   2.072       .  S
Cu579       N589   2.074       .  S
Cu580       N582   2.070       .  S
Cu580       N588   2.070       .  S
N581        N582   1.320       .  A
N581        C585   1.345       .  A
N582        C583   1.343       .  A
C583        C584   1.388       .  A
C583        H586   1.081       .  S
C584        C585   1.390       .  A
C584        C910   1.490       .  S
C585        H587   1.081       .  S
N588        N589   1.320       .  A
N588        C592   1.342       .  A
N589        C590   1.346       .  A
C590        C591   1.391       .  A
C590        H593   1.080       .  S
C591        C592   1.389       .  A
C591        C890   1.492       .  S
C592        H594   1.081       .  S
C595        C596   1.407       .  A
C595        C600   1.408       .  A
C595        C880   1.489       .  S
C596        C597   1.403       .  A
C596        H601   1.084       .  S
C597        C598   1.402       .  A
C597        C933   1.482       .  S
C598        C599   1.403       .  A
C598        H602   1.084       .  S
C599        C600   1.406       .  A
C599        C913   1.485       .  S
C600        H603   1.083       .  S
N604        N605   1.322       .  A
N604        C608   1.344       .  A
N604       Cu612   2.079       .  S
N605        C606   1.344       .  A
N605       Cu611   2.066       .  S
C606        C607   1.385       .  A
C606        H609   1.082       .  S
C607        C608   1.387       .  A
C607        C860   1.483       .  S
C608        H610   1.081       .  S
Cu611       N614   2.065       .  S
Cu612       N622   2.079       .  S
Cu613       N615   2.071       .  S
Cu613       N621   2.072       .  S
N614        N615   1.321       .  A
N614        C618   1.343       .  A
N615        C616   1.345       .  A
C616        C617   1.385       .  A
C616        H619   1.082       .  S
C617        C618   1.384       .  A
C617        C870   1.479       .  S
C618        H620   1.082       .  S
N621        N622   1.322       .  A
N621        C625   1.343       .  A
N622        C623   1.347       .  A
C623        C624   1.385       .  A
C623        H626   1.082       .  S
C624        C625   1.382       .  A
C624        C893   1.477       .  S
C625        H627   1.082       .  S
C628        C629   1.403       .  A
C628        C633   1.404       .  A
C628        C850   1.478       .  S
C629        C630   1.401       .  A
C629        H634   1.084       .  S
C630        C631   1.399       .  A
C630        C873   1.469       .  S
C631        C632   1.402   1_556  A
C631        H635   1.084       .  S
C632        C633   1.403   1_554  A
C632        C973   1.479       .  S
C633        H636   1.084       .  S
N637        N638   1.323       .  A
N637        C641   1.345       .  A
N637       Cu645   2.073       .  S
N638        C639   1.346       .  A
N638       Cu644   2.082       .  S
C639        C640   1.386       .  A
C639        H642   1.082       .  S
C640        C641   1.383       .  A
C640        C883   1.480       .  S
C641        H643   1.082       .  S
Cu644       N647   2.081       .  S
Cu645       N655   2.073       .  S
Cu646       N648   2.062       .  S
Cu646       N654   2.062       .  S
N647        N648   1.321       .  A
N647        C651   1.345       .  A
N648        C649   1.343       .  A
C649        C650   1.384       .  A
C649        H652   1.082       .  S
C650        C651   1.387       .  A
C650        C840   1.481       .  S
C651        H653   1.082       .  S
N654        N655   1.321       .  A
N654        C658   1.342       .  A
N655        C656   1.346       .  A
C656        C657   1.386       .  A
C656        H659   1.082       .  S
C657        C658   1.383       .  A
C657        C830   1.479       .  S
C658        H660   1.082       .  S
C661        C662   1.403   1_565  A
C661        C666   1.403       .  A
C661        C900   1.482       .  S
C662        C663   1.403       .  A
C662        H667   1.084       .  S
C663        C664   1.404       .  A
C663        C843   1.483       .  S
C664        C665   1.403       .  A
C664        H668   1.083       .  S
C665        C666   1.402   1_545  A
C665        C820   1.478   1_545  S
C666        H669   1.084       .  S
N670        N671   1.324       .  A
N670        C674   1.346       .  A
N670       Cu678   2.076       .  S
N671        C672   1.343       .  A
N671       Cu677   2.071       .  S
C672        C673   1.381       .  A
C672        H675   1.082       .  S
C673        C674   1.383       .  A
C673        C853   1.473       .  S
C674        H676   1.082       .  S
Cu677       N680   2.070       .  S
Cu678       N688   2.075       .  S
Cu679       N681   2.060       .  S
Cu679       N687   2.060       .  S
N680        N681   1.320       .  A
N680        C684   1.345       .  A
N681        C682   1.343       .  A
C682        C683   1.384       .  A
C682        H685   1.082       .  S
C683        C684   1.387       .  A
C683        C813   1.479       .  S
C684        H686   1.082       .  S
N687        N688   1.322       .  A
N687        C691   1.341       .  A
N688        C689   1.347       .  A
C689        C690   1.384       .  A
C689        H692   1.082       .  S
C690        C691   1.379       .  A
C690        C833   1.471       .  S
C691        H693   1.082       .  S
C694        C695   1.406   1_545  A
C694        C699   1.404       .  A
C694        C863   1.485   1_545  S
C695        C696   1.404   1_565  A
C695        H700   1.084       .  S
C696        C697   1.403       .  A
C696        C803   1.479   1_556  S
C697        C698   1.400       .  A
C697        H701   1.084       .  S
C698        C699   1.401       .  A
C698        C810   1.473       .  S
C699        H702   1.084       .  S
N703        N704   1.323       .  A
N703        C707   1.344       .  A
N703       Cu711   2.072       .  S
N704        C705   1.344       .  A
N704       Cu710   2.069       .  S
C705        C706   1.383       .  A
C705        H708   1.082       .  S
C706        C707   1.382       .  A
C706        C963   1.474       .  S
C707        H709   1.082       .  S
Cu710       N713   2.068       .  S
Cu711       N721   2.072       .  S
Cu712       N714   2.066       .  S
Cu712       N720   2.067       .  S
N713        N714   1.321       .  A
N713        C717   1.345       .  A
N714        C715   1.343       .  A
C715        C716   1.383       .  A
C715        H718   1.082       .  S
C716        C717   1.384       .  A
C716        C790   1.476       .  S
C717        H719   1.082       .  S
N720        N721   1.321       .  A
N720        C724   1.343       .  A
N721        C722   1.347       .  A
C722        C723   1.384       .  A
C722        H725   1.082       .  S
C723        C724   1.382       .  A
C723        C780   1.475       .  S
C724        H726   1.082       .  S
C727        C728   1.404       .  A
C727        C732   1.402   1_545  A
C727        C993   1.481       .  S
C728        C729   1.404   1_545  A
C728        H733   1.084       .  S
C729        C730   1.404       .  A
C729        C800   1.481       .  S
C730        C731   1.403       .  A
C730        H734   1.084       .  S
C731        C732   1.402       .  A
C731        C793   1.478       .  S
C732        H735   1.084       .  S
N736        N737   1.323       .  A
N736        C740   1.348       .  A
N736       Cu744   2.085       .  S
N737        C738   1.344       .  A
N737       Cu743   2.072       .  S
C738        C739   1.382       .  A
C738        H741   1.082       .  S
C739        C740   1.385       .  A
C739        C923   1.478       .  S
C740        H742   1.082       .  S
Cu743       N746   2.071       .  S
Cu744       N754   2.085       .  S
Cu745       N747   2.075       .  S
Cu745       N753   2.076       .  S
N746        N747   1.321       .  A
N746        C750   1.345       .  A
N747        C748   1.345       .  A
C748        C749   1.386       .  A
C748        H751   1.082       .  S
C749        C750   1.385       .  A
C749        C770   1.481       .  S
C750        H752   1.082       .  S
N753        N754   1.322       .  A
N753        C757   1.344       .  A
N754        C755   1.347       .  A
C755        C756   1.389       .  A
C755        H758   1.081       .  S
C756        C757   1.387       .  A
C756        C783   1.489       .  S
C757        H759   1.081       .  S
C760        C761   1.405       .  A
C760        C765   1.406       .  A
C760        C943   1.484   1_565  S
C761        C762   1.401       .  A
C761        H766   1.084   1_565  S
C762        C763   1.401       .  A
C762        C823   1.474       .  S
C763        C764   1.401       .  A
C763        H767   1.084       .  S
C764        C765   1.404       .  A
C764        C773   1.478       .  S
C765        H768   1.084       .  S
C769        C770   1.407       .  A
C769        C774   1.399       .  A
C769        F776   1.358       .  S
C770        C771   1.408       .  A
C771        C772   1.399       .  A
C771        F778   1.357       .  S
C772        C773   1.404       .  A
C772        F777   1.358       .  S
C773        C774   1.405       .  A
C774        F775   1.358       .  S
C779        C780   1.403       .  A
C779        C784   1.398       .  A
C779        F786   1.358       .  S
C780        C781   1.403       .  A
C781        C782   1.402       .  A
C781        F788   1.358       .  S
C782        C783   1.412       .  A
C782        F787   1.357       .  S
C783        C784   1.410       .  A
C784        F785   1.357       .  S
C789        C790   1.406       .  A
C789        C794   1.397       .  A
C789        F796   1.358       .  S
C790        C791   1.406       .  A
C791        C792   1.398       .  A
C791        F798   1.358       .  S
C792        C793   1.406       .  A
C792        F797   1.358       .  S
C793        C794   1.405       .  A
C794        F795   1.358       .  S
C799        C800   1.406       .  A
C799        C804   1.398       .  A
C799        F806   1.358       .  S
C800        C801   1.407   1_565  A
C801        C802   1.398       .  A
C801        F808   1.358       .  S
C802        C803   1.406       .  A
C802        F807   1.358       .  S
C803        C804   1.405   1_545  A
C804        F805   1.358   1_554  S
C809        C810   1.403       .  A
C809        C814   1.398       .  A
C809        F816   1.358       .  S
C810        C811   1.402       .  A
C811        C812   1.398       .  A
C811        F818   1.358       .  S
C812        C813   1.408       .  A
C812        F817   1.357       .  S
C813        C814   1.409       .  A
C814        F815   1.358       .  S
C819        C820   1.407   1_545  A
C819        C824   1.399   1_545  A
C819        F826   1.358       .  S
C820        C821   1.406       .  A
C821        C822   1.396       .  A
C821        F828   1.358       .  S
C822        C823   1.404       .  A
C822        F827   1.358       .  S
C823        C824   1.405       .  A
C824        F825   1.358       .  S
C829        C830   1.407       .  A
C829        C834   1.395       .  A
C829        F836   1.358       .  S
C830        C831   1.409       .  A
C831        C832   1.401       .  A
C831        F838   1.357       .  S
C832        C833   1.403       .  A
C832        F837   1.358       .  S
C833        C834   1.404       .  A
C834        F835   1.358       .  S
C839        C840   1.407       .  A
C839        C844   1.398       .  A
C839        F846   1.357       .  S
C840        C841   1.408       .  A
C841        C842   1.398       .  A
C841        F848   1.358       .  S
C842        C843   1.408       .  A
C842        F847   1.358       .  S
C843        C844   1.407       .  A
C844        F845   1.358       .  S
C849        C850   1.407       .  A
C849        C854   1.400       .  A
C849        F856   1.358       .  S
C850        C851   1.406       .  A
C851        C852   1.396       .  A
C851        F858   1.358       .  S
C852        C853   1.404       .  A
C852        F857   1.358       .  S
C853        C854   1.405       .  A
C854        F855   1.358       .  S
C859        C860   1.408       .  A
C859        C864   1.399       .  A
C859        F866   1.357       .  S
C860        C861   1.407       .  A
C861        C862   1.397       .  A
C861        F868   1.357       .  S
C862        C863   1.407       .  A
C862        F867   1.358       .  S
C863        C864   1.407       .  A
C864        F865   1.358       .  S
C869        C870   1.408       .  A
C869        C874   1.398       .  A
C869        F876   1.358       .  S
C870        C871   1.409       .  A
C871        C872   1.397       .  A
C871        F878   1.357       .  S
C872        C873   1.400       .  A
C872        F877   1.358       .  S
C873        C874   1.402       .  A
C874        F875   1.358       .  S
C879        C880   1.409       .  A
C879        C884   1.401       .  A
C879        F886   1.358       .  S
C880        C881   1.409       .  A
C881        C882   1.399       .  A
C881        F888   1.358       .  S
C882        C883   1.405       .  A
C882        F887   1.358       .  S
C883        C884   1.406       .  A
C884        F885   1.358       .  S
C889        C894   1.398       .  A
C889        F896   1.357       .  S
C890        C891   1.413       .  A
C891        C892   1.401       .  A
C891        F898   1.356       .  S
C892        F897   1.358       .  S
C893        C894   1.403       .  A
C894        F895   1.358       .  S
C899        C900   1.407       .  A
C899        C904   1.399       .  A
C899        F906   1.358       .  S
C900        C901   1.407       .  A
C901        C902   1.396       .  A
C901        F908   1.358       .  S
C902        C903   1.406       .  A
C902        F907   1.357       .  S
C903        C904   1.407       .  A
C904        F905   1.358       .  S
C909        C910   1.410       .  A
C909        C914   1.399       .  A
C909        F916   1.357       .  S
C910        C911   1.412       .  A
C911        C912   1.400       .  A
C911        F918   1.357       .  S
C912        C913   1.405       .  A
C912        F917   1.358       .  S
C913        C914   1.406       .  A
C914        F915   1.358       .  S
C919        C920   1.407       .  A
C919        C924   1.397       .  A
C919        F926   1.358       .  S
C920        C921   1.410       .  A
C921        C922   1.403       .  A
C921        F928   1.358       .  S
C922        C923   1.406       .  A
C922        F927   1.358       .  S
C923        C924   1.404       .  A
C924        F925   1.358       .  S
C929        C930   1.405       .  A
C929        F936   1.358       .  S
C931        C932   1.401       .  A
C931        F938   1.358       .  S
C932        C933   1.407       .  A
C932        F937   1.358       .  S
C933        C934   1.406       .  A
C939        C940   1.404       .  A
C939        C944   1.397       .  A
C939        F946   1.358       .  S
C940        C941   1.404       .  A
C941        C942   1.399       .  A
C941        F948   1.358       .  S
C942        C943   1.408       .  A
C942        F947   1.358   1_545  S
C943        C944   1.409       .  A
C944        F945   1.358       .  S
C949        C950   1.411       .  A
C949        C954   1.396       .  A
C949        F956   1.356       .  S
C950        C951   1.410       .  A
C951        C952   1.400       .  A
C951        F958   1.357       .  S
C952        C953   1.407       .  A
C952        F957   1.358       .  S
C953        C954   1.404       .  A
C954        F955   1.358       .  S
C959        C960   1.407       .  A
C959        C964   1.397       .  A
C959        F966   1.358       .  S
C960        C961   1.406       .  A
C961        C962   1.398       .  A
C961        F968   1.358       .  S
C962        C963   1.406       .  A
C962        F967   1.358       .  S
C963        C964   1.405       .  A
C964        F965   1.358       .  S
C969        C970   1.406       .  A
C969        C974   1.397       .  A
C969        F976   1.358       .  S
C970        C971   1.405       .  A
C972        C973   1.407       .  A
C972        F977   1.358       .  S
C974        F975   1.358       .  S
C979        C980   1.413       .  A
C979        C984   1.402       .  A
C979        F986   1.357       .  S
C981        C982   1.396       .  A
C981        F988   1.357       .  S
C982        F987   1.358       .  S
C983        C984   1.403       .  A
C984        F985   1.358       .  S
C989        C990   1.408       .  A
C989        C994   1.397       .  A
C989        F996   1.358       .  S
C990        C991   1.406       .  A
C991        C992   1.399       .  A
C991        F998   1.357       .  S
C992        C993   1.406       .  A
C992        F997   1.358       .  S
C993        C994   1.406       .  A
C994        F995   1.358       .  S
C999       C1000   1.402       .  A
C999       C1004   1.400       .  A
C999       F1006   1.358       .  S
C1000      C1001   1.401       .  A
C1001      C1002   1.399       .  A
C1001      F1008   1.358       .  S
C1002      C1003   1.410       .  A
C1002      F1007   1.357       .  S
C1003      C1004   1.412       .  A
C1004      F1005   1.357       .  S
