geometry optimzed in LAMMPS
_audit_creation_date              2020-11-30 
_audit_creation_method            'lammps2cif' 
_symmetry_space_group_name_H-M    'P1' 
_symmetry_Int_Tables_number       1 
_symmetry_cell_setting            triclinic 
loop_ 
_symmetry_equiv_pos_as_xyz 
  x,y,z 
_cell_length_a                    62.60017664 
_cell_length_b                    62.66102960937559 
_cell_length_c                    62.53064439633214 
_cell_angle_alpha                 89.9993682428705 
_cell_angle_beta                  89.96191926702717 
_cell_angle_gamma                 90.164799538853 
loop_ 
_atom_site_label 
_atom_site_type_symbol 
_atom_site_fract_x 
_atom_site_fract_y 
_atom_site_fract_z 
_atom_site_charge 
Fe1        Fe  0.84576804  0.29991529  0.84385141     1.65800
Fe2        Fe  0.88357386  0.28602712  0.88040174     1.73200
Fe3        Fe  0.87222728  0.33903826  0.87150652     1.54400
O4          O  0.87123708  0.34833685  0.83937460    -0.81900
O5          O  0.87727495  0.29903936  0.90990043    -0.80200
O6          O  0.85650512  0.32116937  0.82175597    -0.84400
O7          O  0.82339907  0.32124908  0.85514013    -0.79300
O8          O  0.90515801  0.33597535  0.86796597    -0.81000
O9          O  0.85778024  0.26571609  0.88480550    -0.83800
C10         C  0.82281196  0.33728469  0.86755070     0.97000
C11         C  0.86516936  0.33936161  0.82217219     1.04400
O12         O  0.86713995  0.30835822  0.86533098    -1.12800
O13         O  0.89196108  0.27073326  0.85242823    -0.75200
O14         O  0.86555690  0.27767452  0.82971826    -0.78700
O15         O  0.83966755  0.34534837  0.87564731    -0.79400
C16         C  0.88294544  0.26843429  0.83443268     0.95900
O17         O  0.83220346  0.27714393  0.86292427    -0.77300
O18         O  0.91186546  0.30247786  0.87787540    -0.82500
C19         C  0.87537454  0.31798949  0.91675739     0.98500
C20         C  0.91801139  0.32076727  0.87180025     1.04400
O21         O  0.87419126  0.33410885  0.90443391    -0.78200
C22         C  0.83919484  0.26438860  0.87690305     1.02700
Fe23       Fe  0.69008844  0.15175130  0.84033874     1.65800
Fe24       Fe  0.70460492  0.11418487  0.87619205     1.73200
Fe25       Fe  0.65215788  0.12526698  0.86907109     1.54400
O26         O  0.64291572  0.15742715  0.86659006    -0.81900
O27         O  0.69158218  0.08570142  0.86624733    -0.80200
O28         O  0.67115007  0.17465781  0.85349544    -0.84400
O29         O  0.66626864  0.14204176  0.81976346    -0.79300
O30         O  0.65838212  0.13067375  0.90134290    -0.81000
O31         O  0.72558905  0.11371953  0.85062708    -0.83800
C32         C  0.65065808  0.12903370  0.82010293     0.97000
C33         C  0.65246077  0.17455153  0.86109895     1.04400
O34         O  0.68221080  0.13040057  0.86165451    -1.12800
O35         O  0.71877311  0.14189241  0.88689957    -0.75200
O36         O  0.71492104  0.16346161  0.85874356    -0.78700
O37         O  0.64398905  0.11999734  0.83713614    -0.79400
C38         C  0.72332675  0.15880032  0.87664524     0.95900
O39         O  0.71030773  0.13179029  0.82429750    -0.77300
O40         O  0.68813841  0.11193470  0.90471198    -0.82500
C41         C  0.67257811  0.07929387  0.86947773     0.98500
C42         C  0.67261585  0.12194872  0.91288648     1.04400
O43         O  0.65707905  0.09215641  0.87272256    -0.78200
C44         C  0.72533576  0.12053876  0.83158735     1.02700
Fe45       Fe  0.84672595  0.15164791  0.68719238     1.65800
Fe46       Fe  0.88336895  0.11456019  0.70232502     1.73200
Fe47       Fe  0.87406881  0.12408901  0.64875654     1.54400
O48         O  0.84216727  0.12470678  0.63953342    -0.81900
O49         O  0.91262457  0.11990486  0.68832070    -0.80200
O50         O  0.82458921  0.13997367  0.66642694    -0.84400
O51         O  0.85803695  0.17318193  0.66524634    -0.79300
O52         O  0.87057346  0.09144544  0.65299286    -0.81000
O53         O  0.88867076  0.14152766  0.72114172    -0.83800
C54         C  0.87063208  0.17330277  0.64938226     0.97000
C55         C  0.82504868  0.13089008  0.64841205     1.04400
O56         O  0.86806136  0.13005445  0.67943688    -1.12800
O57         O  0.85602810  0.10767932  0.71934972    -0.75200
O58         O  0.83292256  0.13319390  0.71055515    -0.78700
O59         O  0.87832033  0.15630798  0.64139865    -0.79400
C60         C  0.83830024  0.11713004  0.72157146     0.95900
O61         O  0.86596667  0.16605301  0.70920817    -0.77300
O62         O  0.87945699  0.08544064  0.68707221    -0.82500
C63         C  0.91920709  0.12198242  0.66926390     0.98500
C64         C  0.87363283  0.07897185  0.66871094     1.04400
O65         O  0.90674507  0.12255720  0.65329283    -0.78200
C66         C  0.88039008  0.16000559  0.72195199     1.02700
Fe67       Fe  0.65054707  0.34450189  0.79922830     1.65800
Fe68       Fe  0.61588702  0.38320335  0.78330382     1.73200
Fe69       Fe  0.62523934  0.37447012  0.83647347     1.54400
O70         O  0.62752786  0.34333057  0.84770606    -0.81900
O71         O  0.62425168  0.41243273  0.79599750    -0.80200
O72         O  0.63637527  0.32321501  0.81981317    -0.84400
O73         O  0.67239878  0.35410522  0.82211031    -0.79300
O74         O  0.59263610  0.36965826  0.83242424    -0.81000
O75         O  0.64270792  0.38517798  0.76376840    -0.83800
C76         C  0.67390789  0.36895013  0.83588468     0.97000
C77         C  0.63049628  0.32529613  0.83905729     1.04400
O78         O  0.63052655  0.36736647  0.80623010    -1.12800
O79         O  0.60625021  0.35576621  0.76743094    -0.75200
O80         O  0.63184561  0.33230438  0.77505463    -0.78700
O81         O  0.65775857  0.37967599  0.84205778    -0.79400
C82         C  0.61550343  0.33798122  0.76454370     0.95900
O83         O  0.66673918  0.36302369  0.77769324    -0.77300
O84         O  0.58701986  0.38311310  0.79989947    -0.82500
C85         C  0.62346651  0.41926571  0.81505068     0.98500
C86         C  0.58009418  0.37577190  0.81761019     1.04400
O87         O  0.62184416  0.40685789  0.83098050    -0.78200
C88         C  0.66115165  0.37677425  0.76397907     1.02700
Fe89       Fe  0.80811744  0.34790045  0.64817370     1.65800
Fe90       Fe  0.79490264  0.38463605  0.61041698     1.73200
Fe91       Fe  0.84784567  0.37379688  0.62036586     1.54400
O92         O  0.85705624  0.37334725  0.65255411    -0.81900
O93         O  0.80881688  0.37802853  0.58117821    -0.80200
O94         O  0.83023995  0.35769699  0.67000267    -0.84400
O95         O  0.82850289  0.32511751  0.63657826    -0.79300
O96         O  0.84504048  0.40700016  0.62202146    -0.81000
O97         O  0.77491800  0.35868369  0.60555280    -0.83800
C98         C  0.84489126  0.32439562  0.62466564     0.97000
C99         C  0.84853554  0.36622004  0.66959219     1.04400
O100        O  0.81697929  0.36881586  0.62636275    -1.12800
O101        O  0.77825683  0.39295967  0.63778791    -0.75200
O102        O  0.78648812  0.36826561  0.66207004    -0.78700
O103        O  0.85382446  0.34112971  0.61726494    -0.79400
C104        C  0.77603785  0.38453243  0.65612714     0.95900
O105        O  0.78443273  0.33464861  0.62985828    -0.77300
O106        O  0.81135126  0.41285797  0.61329427    -0.82500
C107        C  0.82790305  0.37567051  0.57475228     0.98500
C108        C  0.82982883  0.41975744  0.61774940     1.04400
O109        O  0.84362402  0.37478657  0.58752122    -0.78200
C110        C  0.77257543  0.34080681  0.61473269     1.02700
Fe111      Fe  0.65664437  0.19260461  0.64296612     1.65800
Fe112      Fe  0.61980671  0.20795732  0.60651868     1.73200
Fe113      Fe  0.62499566  0.15528195  0.62044105     1.54400
O114        O  0.65607957  0.14346084  0.62355828    -0.81900
O115        O  0.58964156  0.19760486  0.61503293    -0.80200
O116        O  0.67718760  0.17176885  0.62857463    -0.84400
O117        O  0.64813484  0.16990709  0.66534766    -0.79300
O118        O  0.62902579  0.15608539  0.58750150    -0.81000
O119        O  0.61874866  0.22904549  0.63225026    -0.83800
C120        C  0.63187792  0.15825801  0.66851382     0.97000
C121        C  0.67446336  0.15203252  0.62511742     1.04400
O122        O  0.63379296  0.18531697  0.62309384    -1.12800
O123        O  0.64834517  0.22129490  0.59606756    -0.75200
O124        O  0.66892778  0.21685636  0.62450844    -0.78700
O125        O  0.61969135  0.15274340  0.65323276    -0.79400
C126        C  0.66503830  0.22563002  0.60671385     0.95900
O127        O  0.63759606  0.21398586  0.65850568    -0.77300
O128        O  0.61956989  0.18954506  0.57903907    -0.82500
C129        C  0.58166433  0.17907366  0.61689472     0.98500
C130        C  0.62474264  0.17060230  0.57390830     1.04400
O131        O  0.59294422  0.16230276  0.61722306    -0.78200
C132        C  0.62548771  0.22853213  0.65144354     1.02700
Fe133      Fe  0.14567827  0.15851584  0.69646106     1.65800
Fe134      Fe  0.10794628  0.12055626  0.70745523     1.73200
Fe135      Fe  0.12622080  0.12710597  0.65603485     1.54400
O136        O  0.12683926  0.15865794  0.64481933    -0.81900
O137        O  0.11305107  0.09073814  0.69519878    -0.80200
O138        O  0.13744732  0.17879613  0.67224709    -0.84400
O139        O  0.17120864  0.14769679  0.67913226    -0.79300
O140        O  0.09281331  0.12859696  0.65478224    -0.81000
O141        O  0.13280624  0.11510768  0.72872710    -0.83800
C142        C  0.17459107  0.13493492  0.66381648     0.97000
C143        C  0.13154925  0.17665889  0.65302854     1.04400
O144        O  0.12664111  0.13536961  0.68659754    -1.12800
O145        O  0.09899396  0.14800954  0.72281971    -0.75200
O146        O  0.12279765  0.17291784  0.71476836    -0.78700
O147        O  0.15947572  0.12516237  0.65429446    -0.79400
C148        C  0.10593385  0.16688437  0.72411353     0.95900
O149        O  0.15652772  0.14098139  0.72205615    -0.77300
O150        O  0.08167195  0.12463445  0.68853350    -0.82500
C151        C  0.12027378  0.08267252  0.67820085     0.98500
C152        C  0.07807174  0.12790612  0.66886461     1.04400
O153        O  0.12612142  0.09435496  0.66261836    -0.78200
C154        C  0.15029610  0.12474763  0.73246307     1.02700
Fe155      Fe  0.30877993  0.14914503  0.84023539     1.65800
Fe156      Fe  0.29012683  0.11665643  0.87876889     1.73200
Fe157      Fe  0.34391665  0.12331694  0.87241803     1.54400
O158        O  0.35324106  0.11579240  0.84119396    -0.81900
O159        O  0.30524284  0.11597436  0.90832089    -0.80200
O160        O  0.33345324  0.13796730  0.82171782    -0.84400
O161        O  0.32774296  0.17268692  0.85307880    -0.79300
O162        O  0.33680863  0.09107506  0.87707862    -0.81000
O163        O  0.27729921  0.14602157  0.88640683    -0.83800
C164        C  0.34573638  0.17222925  0.86240747     0.97000
C165        C  0.34809969  0.12418003  0.82341612     1.04400
O166        O  0.31444148  0.12984056  0.86394635    -1.12800
O167        O  0.27034203  0.11523733  0.85179306    -0.75200
O168        O  0.28996284  0.12695993  0.82501084    -0.78700
O169        O  0.35430118  0.15501961  0.86906219    -0.79400
C170        C  0.27303439  0.11841385  0.83190075     0.95900
O171        O  0.28268179  0.16296664  0.85546223    -0.77300
O172        O  0.30163930  0.08669144  0.87205741    -0.82500
C173        C  0.32250336  0.12317344  0.91619271     0.98500
C174        C  0.32030352  0.07926605  0.87500732     1.04400
O175        O  0.33769517  0.12981501  0.90441646    -0.78200
C176        C  0.27350897  0.16125941  0.87356424     1.02700
Fe177      Fe  0.15144362  0.30589412  0.84147231     1.65800
Fe178      Fe  0.11690162  0.29029407  0.88024278     1.73200
Fe179      Fe  0.12294078  0.34359206  0.86849718     1.54400
O180        O  0.15456142  0.35436204  0.86560534    -0.81900
O181        O  0.08672359  0.30157450  0.87429230    -0.80200
O182        O  0.17349455  0.32679097  0.85336676    -0.84400
O183        O  0.14060883  0.32808998  0.82021082    -0.79300
O184        O  0.12798071  0.34070459  0.90141168    -0.81000
O185        O  0.11291446  0.27023505  0.85436131    -0.83800
C186        C  0.12690356  0.34284500  0.81949938     0.97000
C187        C  0.17218514  0.34575828  0.86021895     1.04400
O188        O  0.13039149  0.31332510  0.86344195    -1.12800
O189        O  0.14587549  0.27634347  0.88797314    -0.75200
O190        O  0.16550447  0.28212941  0.85905056    -0.78700
O191        O  0.11733890  0.34968615  0.83609110    -0.79400
C192        C  0.16260838  0.27323132  0.87697122     0.95900
O193        O  0.13137947  0.28452386  0.82741250    -0.77300
O194        O  0.11876076  0.30707543  0.90838124    -0.82500
C195        C  0.07885358  0.32009816  0.87251014     0.98500
C196        C  0.12455550  0.32548956  0.91448814     1.04400
O197        O  0.09031964  0.33691150  0.87159361    -0.78200
C198        C  0.11849054  0.27088145  0.83489995     1.02700
Fe199      Fe  0.34535966  0.34950126  0.80538931     1.65800
Fe200      Fe  0.38274390  0.38643098  0.79106606     1.73200
Fe201      Fe  0.37377813  0.37504581  0.84456780     1.54400
O202        O  0.34161102  0.37733459  0.85325637    -0.81900
O203        O  0.41207952  0.38169777  0.80493460    -0.80200
O204        O  0.32344486  0.36156757  0.82685793    -0.84400
O205        O  0.35541049  0.32708201  0.82671068    -0.79300
O206        O  0.37364638  0.40825550  0.84108006    -0.81000
O207        O  0.38793119  0.35974116  0.77197787    -0.83800
C208        C  0.36527835  0.32591753  0.84426288     0.97000
C209        C  0.32418756  0.37148719  0.84454862     1.04400
O210        O  0.36738305  0.37031308  0.81372182    -1.12800
O211        O  0.35553589  0.39377148  0.77416484    -0.75200
O212        O  0.33201765  0.36848095  0.78220743    -0.78700
O213        O  0.37400123  0.34228903  0.85272940    -0.79400
C214        C  0.33763015  0.38473465  0.77157422     0.95900
O215        O  0.36467385  0.33517988  0.78313623    -0.77300
O216        O  0.37920947  0.41512871  0.80657672    -0.82500
C217        C  0.41898768  0.37725389  0.82344099     0.98500
C218        C  0.37567356  0.42126056  0.82555410     1.04400
O219        O  0.40679174  0.37372803  0.83941411    -0.78200
C220        C  0.37944394  0.34133624  0.77069346     1.02700
Fe221      Fe  0.20076067  0.34589412  0.64452229     1.65800
Fe222      Fe  0.21414811  0.38529622  0.60923113     1.73200
Fe223      Fe  0.16141645  0.37534013  0.62109926     1.54400
O224        O  0.15169973  0.34346749  0.62118917    -0.81900
O225        O  0.20073218  0.41423811  0.61698260    -0.80200
O226        O  0.17952735  0.32423016  0.63205215    -0.84400
O227        O  0.17934494  0.35496470  0.66789312    -0.79300
O228        O  0.16391729  0.37339772  0.58801797    -0.81000
O229        O  0.23368920  0.38915089  0.63557116    -0.83800
C230        C  0.16427578  0.36833047  0.66982715     0.97000
C231        C  0.16062850  0.32570999  0.62505912     1.04400
O232        O  0.19212030  0.36882249  0.62488222    -1.12800
O233        O  0.23062990  0.35837302  0.59951347    -0.75200
O234        O  0.22363015  0.33385699  0.62411978    -0.78700
O235        O  0.15649263  0.37812947  0.65384845    -0.79400
C236        C  0.23346825  0.33999681  0.60747716     0.95900
O237        O  0.22302706  0.36475057  0.65927510    -0.77300
O238        O  0.19749487  0.38345090  0.58095962    -0.82500
C239        C  0.18182499  0.42066286  0.62011177     0.98500
C240        C  0.17897546  0.37772388  0.57501185     1.04400
O241        O  0.16591921  0.40810841  0.62074701    -0.78200
C242        C  0.23489216  0.38016351  0.65367762     1.02700
Fe243      Fe  0.35238868  0.20129628  0.65136155     1.65800
Fe244      Fe  0.39029835  0.21161560  0.61375341     1.73200
Fe245      Fe  0.37521065  0.15971453  0.62463602     1.54400
O246        O  0.37274425  0.15151777  0.65718662    -0.81900
O247        O  0.38343930  0.19767266  0.58468493    -0.80200
O248        O  0.36360445  0.18117982  0.67440284    -0.84400
O249        O  0.32904404  0.18008672  0.64288743    -0.79300
O250        O  0.40836744  0.16072864  0.62799761    -0.81000
O251        O  0.36534985  0.23259825  0.60848907    -0.83800
C252        C  0.32672488  0.16427617  0.63053074     0.97000
C253        C  0.36865767  0.16166659  0.67438200     1.04400
O254        O  0.37264414  0.19085087  0.62981722    -1.12800
O255        O  0.39964665  0.22831311  0.64091678    -0.75200
O256        O  0.37250658  0.22390451  0.66338253    -0.78700
O257        O  0.34233885  0.15563877  0.62082039    -0.79400
C258        C  0.39019448  0.23224590  0.65842974     0.95900
O259        O  0.33914398  0.22293728  0.63071070    -0.77300
O260        O  0.41733719  0.19350677  0.61704747    -0.82500
C261        C  0.37993948  0.17871416  0.57846793     0.98500
C262        C  0.42222708  0.17497865  0.62352070     1.04400
O263        O  0.37751297  0.16318963  0.59139875    -0.78200
C264        C  0.34663193  0.23466950  0.61598279     1.02700
Fe265      Fe  0.30387455  0.84606229  0.85318045     1.65800
Fe266      Fe  0.29080237  0.88121462  0.89227444     1.73200
Fe267      Fe  0.34338469  0.87562968  0.87686186     1.54400
O268        O  0.35274274  0.84383580  0.87977053    -0.81900
O269        O  0.30412546  0.91120677  0.88821372    -0.80200
O270        O  0.32705464  0.82518585  0.86315651    -0.84400
O271        O  0.32298462  0.85755450  0.82985181    -0.79300
O272        O  0.34227267  0.87810829  0.91005182    -0.81000
O273        O  0.27084025  0.88770338  0.86669224    -0.83800
C274        C  0.33984372  0.86816180  0.82767954     0.97000
C275        C  0.34468830  0.82636928  0.87309814     1.04400
O276        O  0.31272714  0.86765545  0.87416860    -1.12800
O277        O  0.27455144  0.85303260  0.89933904    -0.75200
O278        O  0.28291616  0.83109873  0.87309934    -0.78700
O279        O  0.34947809  0.87554174  0.84392628    -0.79400
C280        C  0.27282252  0.83512087  0.89007917     0.95900
O281        O  0.28002745  0.86488676  0.84089479    -0.77300
O282        O  0.30805747  0.87646812  0.91957983    -0.82500
C283        C  0.32134350  0.91908093  0.88081737     0.98500
C284        C  0.32768442  0.87800823  0.92419184     1.04400
O285        O  0.33693379  0.90780917  0.87444848    -0.78200
C286        C  0.26874954  0.88008577  0.84798930     1.02700
Fe287      Fe  0.15370649  0.69157609  0.84509914     1.65800
Fe288      Fe  0.11501911  0.70615243  0.87961932     1.73200
Fe289      Fe  0.13007853  0.65403521  0.87661454     1.54400
O290        O  0.12855453  0.64170283  0.84566013    -0.81900
O291        O  0.11300336  0.69220346  0.90952774    -0.80200
O292        O  0.14750834  0.66527423  0.82682354    -0.84400
O293        O  0.17821686  0.67572380  0.86012678    -0.79300
O294        O  0.09659898  0.65603387  0.87647642    -0.81000
O295        O  0.14152173  0.72322949  0.88956724    -0.83800
C296        C  0.17948556  0.65868155  0.87104553     0.97000
C297        C  0.13774193  0.64763608  0.82850706     1.04400
O298        O  0.13300579  0.68375399  0.86706252    -1.12800
O299        O  0.11361973  0.72480878  0.85226563    -0.75200
O300        O  0.13127327  0.70753518  0.82715410    -0.78700
O301        O  0.16296956  0.64878776  0.87767033    -0.79400
C302        C  0.11925768  0.72264133  0.83294133     0.95900
O303        O  0.16273978  0.71921051  0.86105859    -0.77300
O304        O  0.08786041  0.69013876  0.87022224    -0.82500
C305        C  0.12259468  0.67720283  0.91900852     0.98500
C306        C  0.08290406  0.67051702  0.87219232     1.04400
O307        O  0.13220735  0.66281030  0.90855017    -0.78200
C308        C  0.15793808  0.72824823  0.87864322     1.02700
Fe309      Fe  0.14865310  0.84920867  0.70375323     1.65800
Fe310      Fe  0.11351303  0.88782788  0.71557447     1.73200
Fe311      Fe  0.12476923  0.87516308  0.66381660     1.54400
O312        O  0.15734345  0.88108844  0.65920959    -0.81900
O313        O  0.08571333  0.88801766  0.69730424    -0.80200
O314        O  0.16967487  0.85439346  0.67871368    -0.84400
O315        O  0.13296990  0.82621308  0.68700418    -0.79300
O316        O  0.12022207  0.90819458  0.66715441    -0.81000
O317        O  0.10181437  0.86110892  0.73078556    -0.83800
C318        C  0.13135465  0.82561425  0.66689913     0.97000
C319        C  0.17263236  0.86904110  0.66504116     1.04400
O320        O  0.12890701  0.87084521  0.69440735    -1.12800
O321        O  0.13919664  0.88912743  0.73702819    -0.75200
O322        O  0.16536176  0.87110943  0.72119487    -0.78700
O323        O  0.12941738  0.84261032  0.65579429    -0.79400
C324        C  0.15846235  0.88268862  0.73625013     0.95900
O325        O  0.13052597  0.84031510  0.72984904    -0.77300
O326        O  0.12385976  0.91582514  0.70186340    -0.82500
C327        C  0.07921421  0.87776680  0.68093914     0.98500
C328        C  0.12247763  0.92149312  0.68243947     1.04400
O329        O  0.09212159  0.86949151  0.66748392    -0.78200
C330        C  0.11184467  0.84453102  0.73637900     1.02700
Fe331      Fe  0.35051713  0.65236714  0.80574333     1.65800
Fe332      Fe  0.38991008  0.61791039  0.79159202     1.73200
Fe333      Fe  0.37866077  0.62687997  0.84470012     1.54400
O334        O  0.37496126  0.65870666  0.85413769    -0.81900
O335        O  0.38374766  0.58834964  0.80454443    -0.80200
O336        O  0.36077066  0.67549344  0.82622237    -0.84400
O337        O  0.32934394  0.64071573  0.82786074    -0.79300
O338        O  0.41114633  0.63285766  0.84105665    -0.81000
O339        O  0.36439450  0.61315869  0.77085329    -0.83800
C340        C  0.32950690  0.62817527  0.84375446     0.97000
C341        C  0.36819449  0.67551429  0.84499997     1.04400
O342        O  0.37302647  0.63237634  0.81403496    -1.12800
O343        O  0.39743934  0.64629941  0.77637148    -0.75200
O344        O  0.36886690  0.66658495  0.78258113    -0.78700
O345        O  0.34665511  0.62053320  0.85146628    -0.79400
C346        C  0.38658253  0.66313770  0.77343559     0.95900
O347        O  0.33728222  0.63189868  0.78401552    -0.77300
O348        O  0.41819432  0.62049920  0.80845620    -0.82500
C349        C  0.38280812  0.58170478  0.82369325     0.98500
C350        C  0.42426179  0.62789636  0.82634665     1.04400
O351        O  0.38269338  0.59418932  0.83976982    -0.78200
C352        C  0.34511717  0.61929056  0.77034908     1.02700
Fe353      Fe  0.34321692  0.81250664  0.65519436     1.65800
Fe354      Fe  0.38010096  0.79555976  0.61947809     1.73200
Fe355      Fe  0.37316765  0.84928415  0.62768622     1.54400
O356        O  0.34125088  0.85969635  0.62700684    -0.81900
O357        O  0.40967649  0.80746842  0.62744727    -0.80200
O358        O  0.32211318  0.83306077  0.64098459    -0.84400
O359        O  0.35410100  0.83525479  0.67652020    -0.79300
O360        O  0.37068825  0.84476228  0.59501842    -0.81000
O361        O  0.38189632  0.77617921  0.64631482    -0.83800
C362        C  0.36796916  0.85007581  0.67662558     0.97000
C363        C  0.32342565  0.85086084  0.63143286     1.04400
O364        O  0.36552135  0.81917131  0.63411588    -1.12800
O365        O  0.35176773  0.78145437  0.61024252    -0.75200
O366        O  0.32989332  0.78799589  0.63718855    -0.78700
O367        O  0.37686009  0.85697708  0.65974172    -0.79400
C368        C  0.33430116  0.77821696  0.61996012     0.95900
O369        O  0.36170752  0.79109667  0.67143946    -0.77300
O370        O  0.38030338  0.81086536  0.59028100    -0.82500
C371        C  0.41748114  0.82615489  0.62830162     0.98500
C372        C  0.37505972  0.82900973  0.58305839     1.04400
O373        O  0.40595385  0.84285492  0.62717266    -0.78200
C374        C  0.37460934  0.77689045  0.66522777     1.02700
Fe375      Fe  0.19999980  0.65132092  0.65484839     1.65800
Fe376      Fe  0.21175348  0.61416531  0.61686958     1.73200
Fe377      Fe  0.15924882  0.62564798  0.62877490     1.54400
O378        O  0.15188282  0.62539964  0.66122569    -0.81900
O379        O  0.19689339  0.62082302  0.58830952    -0.80200
O380        O  0.17975791  0.63999461  0.67791149    -0.84400
O381        O  0.17838057  0.67398755  0.64524668    -0.79300
O382        O  0.16220726  0.59281472  0.63113490    -0.81000
O383        O  0.23149112  0.64024721  0.61123294    -0.83800
C384        C  0.16142738  0.67462732  0.63420781     0.97000
C385        C  0.16163117  0.63104015  0.67811170     1.04400
O386        O  0.19031521  0.63041320  0.63345247    -1.12800
O387        O  0.22926109  0.60571685  0.64357964    -0.75200
O388        O  0.22305315  0.63149896  0.66717078    -0.78700
O389        O  0.15262933  0.65807821  0.62638191    -0.79400
C390        C  0.23254232  0.61456970  0.66151362     0.95900
O391        O  0.22165729  0.66518245  0.63463337    -0.77300
O392        O  0.19543353  0.58572963  0.62058474    -0.82500
C393        C  0.17777167  0.62391343  0.58242392     0.98500
C394        C  0.17718694  0.57979415  0.62718335     1.04400
O395        O  0.16231817  0.62514583  0.59558586    -0.78200
C396        C  0.23329516  0.65867280  0.61944236     1.02700
Fe397      Fe  0.84960206  0.84507557  0.69777815     1.65800
Fe398      Fe  0.88366562  0.88461818  0.71137055     1.73200
Fe399      Fe  0.87279391  0.87427874  0.65861578     1.54400
O400        O  0.87349854  0.84201760  0.65008865    -0.81900
O401        O  0.87281375  0.91284310  0.69847671    -0.80200
O402        O  0.86549782  0.82335556  0.67938510    -0.84400
O403        O  0.82759689  0.85044616  0.67369376    -0.79300
O404        O  0.90568946  0.87273438  0.66130810    -0.81000
O405        O  0.85738151  0.88497590  0.73222009    -0.83800
C406        C  0.82477913  0.86438414  0.65926818     0.97000
C407        C  0.87215778  0.82443630  0.66025639     1.04400
O408        O  0.86888013  0.86796186  0.68919433    -1.12800
O409        O  0.89589390  0.85797816  0.72669967    -0.75200
O410        O  0.86816277  0.83594277  0.72371084    -0.78700
O411        O  0.83991234  0.87644202  0.65296734    -0.79400
C412        C  0.88581215  0.84129203  0.73222404     0.95900
O413        O  0.83233760  0.86548850  0.71642560    -0.77300
O414        O  0.91195171  0.88608948  0.69383128    -0.82500
C415        C  0.87184087  0.91963589  0.67938472     0.98500
C416        C  0.91836748  0.87931513  0.67573615     1.04400
O417        O  0.87327307  0.90723550  0.66331571    -0.78200
C418        C  0.83826299  0.87802591  0.73111386     1.02700
Fe419      Fe  0.85141267  0.69660016  0.85031606     1.65800
Fe420      Fe  0.88868469  0.70940197  0.88708781     1.73200
Fe421      Fe  0.87749012  0.65702121  0.87582424     1.54400
O422        O  0.84533945  0.64851670  0.87089243    -0.81900
O423        O  0.91736940  0.69495690  0.88004001    -0.80200
O424        O  0.82845829  0.67893620  0.86555513    -0.84400
O425        O  0.85854184  0.67196514  0.82940222    -0.79300
O426        O  0.87156830  0.66023284  0.90823896    -0.81000
O427        O  0.89384819  0.72820459  0.85989100    -0.83800
C428        C  0.87255715  0.65741650  0.82794484     0.97000
C429        C  0.82809756  0.65902043  0.86870613     1.04400
O430        O  0.87265740  0.68776481  0.87116201    -1.12800
O431        O  0.86169322  0.72710256  0.89565317    -0.75200
O432        O  0.84086729  0.72255622  0.86728783    -0.78700
O433        O  0.88396440  0.65169965  0.84370679    -0.79400
C434        C  0.84539405  0.73197498  0.88458543     0.95900
O435        O  0.87290931  0.71548583  0.83427537    -0.77300
O436        O  0.88546700  0.69242397  0.91573322    -0.82500
C437        C  0.92344901  0.67569251  0.87999060     0.98500
C438        C  0.87745313  0.67453770  0.92146355     1.04400
O439        O  0.91023856  0.66029888  0.88095376    -0.78200
C440        C  0.88770164  0.72792587  0.84046805     1.02700
Fe441      Fe  0.69263147  0.84840943  0.84918625     1.65800
Fe442      Fe  0.70760927  0.88228349  0.88818150     1.73200
Fe443      Fe  0.65459926  0.87273253  0.87972847     1.54400
O444        O  0.64581827  0.87921905  0.84829193    -0.81900
O445        O  0.69200548  0.88082832  0.91739719    -0.80200
O446        O  0.66725091  0.85745271  0.83002231    -0.84400
O447        O  0.67479512  0.82423370  0.86232062    -0.79300
O448        O  0.65943365  0.90569792  0.88442577    -0.81000
O449        O  0.72232355  0.85358608  0.89585574    -0.83800
C450        C  0.65607558  0.82360487  0.87007310     0.97000
C451        C  0.65132616  0.86992588  0.83110157     1.04400
O452        O  0.68481507  0.86785456  0.87232675    -1.12800
O453        O  0.72711911  0.88644435  0.86156624    -0.75200
O454        O  0.71136484  0.87082801  0.83389695    -0.78700
O455        O  0.64613946  0.84040311  0.87589977    -0.79400
C456        C  0.72601607  0.88249154  0.84167624     0.95900
O457        O  0.71919478  0.83633086  0.86507415    -0.77300
O458        O  0.69438442  0.91155969  0.88148665    -0.82500
C459        C  0.67461757  0.87294325  0.92423901     0.98500
C460        C  0.67535944  0.91841074  0.88288797     1.04400
O461        O  0.65985295  0.86657836  0.91186592    -0.78200
C462        C  0.72730497  0.83817932  0.88362611     1.02700
Fe463      Fe  0.80471741  0.65428709  0.65124998     1.65800
Fe464      Fe  0.79165011  0.61427294  0.61803758     1.73200
Fe465      Fe  0.84426851  0.62644971  0.62803135     1.54400
O466        O  0.85257118  0.65906886  0.63036703    -0.81900
O467        O  0.80590284  0.58612515  0.62686595    -0.80200
O468        O  0.82138610  0.67508113  0.63267732    -0.84400
O469        O  0.82997037  0.64963404  0.67242355    -0.79300
O470        O  0.84082766  0.62885484  0.59514716    -0.81000
O471        O  0.77240664  0.61250764  0.64564999    -0.83800
C472        C  0.84469738  0.63593087  0.67509963     0.97000
C473        C  0.84140481  0.67601938  0.63125592     1.04400
O474        O  0.81349049  0.63125765  0.63257044    -1.12800
O475        O  0.77495669  0.64041291  0.60664499    -0.75200
O476        O  0.77813984  0.66293663  0.63373021    -0.78700
O477        O  0.85011713  0.62313660  0.66035964    -0.79400
C478        C  0.76977497  0.65747469  0.61611485     0.95900
O479        O  0.78690986  0.63439199  0.66999936    -0.77300
O480        O  0.80855087  0.61453141  0.58944694    -0.82500
C481        C  0.82529085  0.58028021  0.62708527     0.98500
C482        C  0.82650156  0.62143450  0.58269050     1.04400
O483        O  0.84071296  0.59350233  0.62617369    -0.78200
C484        C  0.77351365  0.62020166  0.66457522     1.02700
Fe485      Fe  0.65816486  0.65247026  0.81952784     1.65800
Fe486      Fe  0.62272611  0.61719882  0.79996516     1.73200
Fe487      Fe  0.62887646  0.62257799  0.85441647     1.54400
O488        O  0.66108443  0.62026969  0.86351206    -0.81900
O489        O  0.59264200  0.62353621  0.81178921    -0.80200
O490        O  0.67983885  0.63536522  0.83693615    -0.84400
O491        O  0.65054770  0.67066975  0.84550484    -0.79300
O492        O  0.63009445  0.59009958  0.84775910    -0.81000
O493        O  0.62134773  0.64555046  0.78261048    -0.83800
C494        C  0.63803345  0.67033708  0.86133865     0.97000
C495        C  0.67870901  0.62462752  0.85414228     1.04400
O496        O  0.63633103  0.63077216  0.82482226    -1.12800
O497        O  0.65181175  0.60901125  0.78637929    -0.75200
O498        O  0.66996452  0.63851518  0.79210412    -0.78700
O499        O  0.62683053  0.65398823  0.86576658    -0.79400
C500        C  0.66801085  0.62065807  0.78293750     0.95900
O501        O  0.63767303  0.67070759  0.80186004    -0.77300
O502        O  0.62237460  0.58716522  0.81317632    -0.82500
C503        C  0.58487283  0.62462143  0.83055405     0.98500
C504        C  0.62656861  0.57895806  0.83117673     1.04400
O505        O  0.59617917  0.62383988  0.84754449    -0.78200
C506        C  0.62656020  0.66490325  0.78596079     1.02700
Fe507      Fe  0.65089271  0.80061873  0.65784958     1.65800
Fe508      Fe  0.61147641  0.78632637  0.62280223     1.73200
Fe509      Fe  0.62424640  0.83939972  0.63051128     1.54400
O510        O  0.62723892  0.84963692  0.66238001    -0.81900
O511        O  0.61578881  0.79919854  0.59269881    -0.80200
O512        O  0.64138965  0.82244315  0.68012680    -0.84400
O513        O  0.67323348  0.82104680  0.64506947    -0.79300
O514        O  0.59156376  0.83683733  0.63594970    -0.81000
O515        O  0.63730919  0.76610897  0.61706163    -0.83800
C516        C  0.67368093  0.83625055  0.63169350     0.97000
C517        C  0.63352846  0.84096728  0.67965767     1.04400
O518        O  0.62885032  0.80875432  0.63698818    -1.12800
O519        O  0.60485309  0.77042801  0.65103462    -0.75200
O520        O  0.63155891  0.77905023  0.67299832    -0.78700
O521        O  0.65672075  0.84463838  0.62424466    -0.79400
C522        C  0.61465560  0.76881132  0.66869568     0.95900
O523        O  0.66321944  0.77724054  0.63878077    -0.77300
O524        O  0.58338607  0.80327173  0.62709978    -0.82500
C525        C  0.61783590  0.81805680  0.58558870     0.98500
C526        C  0.57801940  0.82193464  0.63300025     1.04400
O527        O  0.62024526  0.83413683  0.59778707    -0.78200
C528        C  0.65602517  0.76454444  0.62480226     1.02700
Fe529      Fe  0.85288672  0.29995749  0.15125377     1.65800
Fe530      Fe  0.88859698  0.28596552  0.11324111     1.73200
Fe531      Fe  0.87794557  0.33876847  0.12277807     1.54400
O532        O  0.84555294  0.34518833  0.12028174    -0.81900
O533        O  0.91700166  0.30288388  0.11279428    -0.80200
O534        O  0.83122081  0.32379846  0.14456386    -0.84400
O535        O  0.86769442  0.31853637  0.17360816    -0.79300
O536        O  0.87772482  0.33394050  0.08996279    -0.81000
O537        O  0.89942727  0.27120031  0.14054545    -0.83800
C538        C  0.87593038  0.33702243  0.17277058     0.97000
C539        C  0.82961905  0.33869991  0.13098088     1.04400
O540        O  0.87331150  0.30831736  0.12911227    -1.12800
O541        O  0.86249890  0.26516984  0.11237179    -0.75200
O542        O  0.83651285  0.28094539  0.13033795    -0.78700
O543        O  0.87903834  0.34691052  0.15520665    -0.79400
C544        C  0.84323579  0.26589032  0.11867835     0.95900
O545        O  0.87104732  0.27441345  0.16169429    -0.77300
O546        O  0.87927816  0.29875230  0.08423276    -0.82500
C547        C  0.92345010  0.32130388  0.11830029     0.98500
C548        C  0.87723610  0.31783310  0.07759144     1.04400
O549        O  0.91071618  0.33599819  0.12382552    -0.78200
C550        C  0.88895277  0.26610875  0.15711117     1.02700
Fe551      Fe  0.80753705  0.34414393  0.34668951     1.65800
Fe552      Fe  0.79502622  0.38137200  0.38388652     1.73200
Fe553      Fe  0.84702595  0.37401195  0.36841157     1.54400
O554        O  0.85725174  0.34230055  0.36537201    -0.81900
O555        O  0.80675212  0.41095703  0.37635926    -0.80200
O556        O  0.82794639  0.32260270  0.36024484    -0.84400
O557        O  0.83013037  0.35167304  0.32403671    -0.79300
O558        O  0.84679900  0.36964367  0.40134717    -0.81000
O559        O  0.77364036  0.38449394  0.35835007    -0.83800
C560        C  0.84338637  0.36658208  0.32074329     0.97000
C561        C  0.84776889  0.32434878  0.36391300     1.04400
O562        O  0.81650223  0.36660784  0.36641530    -1.12800
O563        O  0.78069010  0.35369933  0.39411217    -0.75200
O564        O  0.78379206  0.33235915  0.36609413    -0.78700
O565        O  0.84939108  0.37889453  0.33569195    -0.79400
C566        C  0.77636487  0.33656861  0.38442045     0.95900
O567        O  0.78634654  0.36429871  0.33173819    -0.77300
O568        O  0.81380049  0.37936613  0.41101467    -0.82500
C569        C  0.82519428  0.41850529  0.37287076     0.98500
C570        C  0.83258421  0.37308419  0.41549122     1.04400
O571        O  0.84155116  0.40666986  0.37116638    -0.78200
C572        C  0.77321497  0.37790097  0.33905236     1.02700
Fe573      Fe  0.85632404  0.15184057  0.29342678     1.65800
Fe574      Fe  0.89284306  0.11330765  0.28475291     1.73200
Fe575      Fe  0.87654958  0.12503259  0.33580599     1.54400
O576        O  0.88102984  0.15700851  0.34326864    -0.81900
O577        O  0.88827299  0.08498297  0.30106652    -0.80200
O578        O  0.86050873  0.17244457  0.31884652    -0.84400
O579        O  0.83061261  0.13756042  0.30779133    -0.79300
O580        O  0.90988370  0.12222022  0.33589470    -0.81000
O581        O  0.86688237  0.10528632  0.26543854    -0.83800
C582        C  0.82770752  0.13187164  0.32700019     0.97000
C583        C  0.87134180  0.17316983  0.33594207     1.04400
O584        O  0.87538165  0.13002576  0.30473812    -1.12800
O585        O  0.90044765  0.13979901  0.26620564    -0.75200
O586        O  0.88102625  0.16693926  0.27811951    -0.78700
O587        O  0.84333467  0.12823375  0.33958485    -0.79400
C588        C  0.89615913  0.15960309  0.26679340     0.95900
O589        O  0.84843757  0.13549293  0.26605772    -0.77300
O590        O  0.92009509  0.11957046  0.30181270    -0.82500
C591        C  0.87897732  0.07906348  0.31811279     0.98500
C592        C  0.92431894  0.12191272  0.32150565     1.04400
O593        O  0.87205274  0.09239334  0.33177730    -0.78200
C594        C  0.85197512  0.11712634  0.25854025     1.02700
Fe595      Fe  0.69817496  0.15200115  0.14318900     1.65800
Fe596      Fe  0.71114001  0.11237827  0.11020940     1.73200
Fe597      Fe  0.65929617  0.12534277  0.11782263     1.54400
O598        O  0.65266175  0.12069758  0.14984936    -0.81900
O599        O  0.69377216  0.10981086  0.08173341    -0.80200
O600        O  0.67189806  0.14763642  0.16308005    -0.84400
O601        O  0.68249988  0.17427062  0.12526834    -0.79300
O602        O  0.66311459  0.09226967  0.11418792    -0.81000
O603        O  0.72682580  0.13825571  0.09733975    -0.83800
C604        C  0.66252377  0.17491380  0.12238031     0.97000
C605        C  0.65745180  0.13343010  0.16491940     1.04400
O606        O  0.68953701  0.12997381  0.12364040    -1.12800
O607        O  0.73188721  0.11321249  0.13647551    -0.75200
O608        O  0.71463193  0.13067340  0.16191463    -0.78700
O609        O  0.65133695  0.15791801  0.12088217    -0.79400
C610        C  0.73044272  0.11970639  0.15571467     0.95900
O611        O  0.72552344  0.15936638  0.12604088    -0.77300
O612        O  0.69682416  0.08579325  0.12287575    -0.82500
C613        C  0.67783909  0.11985251  0.07402158     0.98500
C614        C  0.67800631  0.07933853  0.11915327     1.04400
O615        O  0.66448270  0.12971149  0.08567962    -0.78200
C616        C  0.73326747  0.15425189  0.10797277     1.02700
Fe617      Fe  0.65682322  0.34252113  0.18567074     1.65800
Fe618      Fe  0.62259620  0.37934722  0.20357573     1.73200
Fe619      Fe  0.62999775  0.37298529  0.14991453     1.54400
O620        O  0.66256989  0.37262330  0.14117021    -0.81900
O621        O  0.59292563  0.37153164  0.19161087    -0.80200
O622        O  0.67990294  0.35836433  0.16886616    -0.84400
O623        O  0.64908719  0.32399583  0.15960661    -0.79300
O624        O  0.63409944  0.40504131  0.15557536    -0.81000
O625        O  0.62161727  0.35191190  0.22263322    -0.83800
C626        C  0.63520143  0.32468950  0.14493991     0.97000
C627        C  0.67980985  0.36862425  0.15137234     1.04400
O628        O  0.63634272  0.36500095  0.17952865    -1.12800
O629        O  0.65172001  0.38810220  0.21682500    -0.75200
O630        O  0.66794424  0.35725674  0.21303963    -0.78700
O631        O  0.62486927  0.34151091  0.14053638    -0.79400
C632        C  0.66697022  0.37560882  0.22141098     0.95900
O633        O  0.63490944  0.32547926  0.20307545    -0.77300
O634        O  0.62149103  0.40896468  0.18863735    -0.82500
C635        C  0.58521892  0.37337178  0.17287991     0.98500
C636        C  0.62779815  0.41658327  0.17090402     1.04400
O637        O  0.59707593  0.37534378  0.15630806    -0.78200
C638        C  0.62549989  0.33219709  0.21967942     1.02700
Fe639      Fe  0.65791418  0.19430777  0.34283502     1.65800
Fe640      Fe  0.62200158  0.20711175  0.38053580     1.73200
Fe641      Fe  0.62884240  0.15548400  0.36718213     1.54400
O642        O  0.63220964  0.14769511  0.33462102    -0.81900
O643        O  0.63303850  0.19289153  0.40781804    -0.80200
O644        O  0.64450616  0.17708706  0.31878005    -0.84400
O645        O  0.67799588  0.16958505  0.35100727    -0.79300
O646        O  0.59678464  0.16202021  0.36150682    -0.81000
O647        O  0.64744991  0.22819332  0.38181062    -0.83800
C648        C  0.67749417  0.15358179  0.36348913     0.97000
C649        C  0.63753760  0.15818381  0.31797173     1.04400
O650        O  0.63638171  0.18555387  0.36335493    -1.12800
O651        O  0.61072647  0.22235849  0.35346896    -0.75200
O652        O  0.63971394  0.21992322  0.33256100    -0.78700
O653        O  0.66052704  0.14705265  0.37270767    -0.79400
C654        C  0.62133946  0.22748262  0.33685509     0.95900
O655        O  0.67405537  0.21252977  0.36454889    -0.77300
O656        O  0.59383169  0.18983398  0.38277625    -0.82500
C657        C  0.62837388  0.17414084  0.41388059     0.98500
C658        C  0.58528985  0.17495740  0.37205079     1.04400
O659        O  0.62435608  0.15922897  0.40048430    -0.78200
C660        C  0.66686342  0.22719196  0.37631286     1.02700
Fe661      Fe  0.84093568  0.85054063  0.30253311     1.65800
Fe662      Fe  0.87912130  0.88655973  0.29121098     1.73200
Fe663      Fe  0.87003810  0.87180720  0.34300699     1.54400
O664        O  0.83834477  0.87660809  0.35215809    -0.81900
O665        O  0.90810991  0.88437022  0.30707425    -0.80200
O666        O  0.82147351  0.85560989  0.32894860    -0.84400
O667        O  0.85515530  0.82542234  0.31709902    -0.79300
O668        O  0.87391396  0.90527906  0.34127697    -0.81000
O669        O  0.88769027  0.85955727  0.27438846    -0.83800
C670        C  0.86166046  0.82285650  0.33600023     0.97000
C671        C  0.82176104  0.86653780  0.34607830     1.04400
O672        O  0.86326251  0.86983673  0.31242449    -1.12800
O673        O  0.85233625  0.89180673  0.27212816    -0.75200
O674        O  0.82522014  0.87445598  0.28702471    -0.78700
O675        O  0.86643442  0.83864340  0.34807030    -0.79400
C676        C  0.83247578  0.88774086  0.27358829     0.95900
O677        O  0.85701938  0.84177178  0.27477416    -0.77300
O678        O  0.87206808  0.91432605  0.30664884    -0.82500
C679        C  0.91501725  0.87461835  0.32344990     0.98500
C680        C  0.87267824  0.91916324  0.32630594     1.04400
O681        O  0.90242936  0.86670290  0.33733455    -0.78200
C682        C  0.87599700  0.84431792  0.26799050     1.02700
Fe683      Fe  0.84025928  0.69518186  0.15662246     1.65800
Fe684      Fe  0.87221881  0.71122152  0.11670077     1.73200
Fe685      Fe  0.86715495  0.65834272  0.12820614     1.54400
O686        O  0.86723027  0.65014427  0.16086089    -0.81900
O687        O  0.86148965  0.69682317  0.08923971    -0.80200
O688        O  0.85795884  0.67927965  0.17893588    -0.84400
O689        O  0.82125581  0.66885813  0.15169499    -0.79300
O690        O  0.89938975  0.66465234  0.13091073    -0.81000
O691        O  0.84418515  0.72957303  0.11695239    -0.83800
C692        C  0.81951206  0.65448567  0.13755187     0.97000
C693        C  0.86526432  0.66041500  0.17839513     1.04400
O694        O  0.86022676  0.68821139  0.13404099    -1.12800
O695        O  0.88355153  0.72776098  0.14278511    -0.75200
O696        O  0.85601765  0.72340955  0.16486972    -0.78700
O697        O  0.83490719  0.64986295  0.12504992    -0.79400
C698        C  0.87299629  0.73312832  0.15920379     0.95900
O699        O  0.82090657  0.71039875  0.13543288    -0.77300
O700        O  0.90208054  0.69634057  0.11473502    -0.82500
C701        C  0.86540078  0.67829334  0.08223212     0.98500
C702        C  0.91047432  0.67966566  0.12285927     1.04400
O703        O  0.86919899  0.66281836  0.09491135    -0.78200
C704        C  0.82525472  0.72611894  0.12363759     1.02700
Fe705      Fe  0.68327912  0.85014421  0.15989247     1.65800
Fe706      Fe  0.69881627  0.88532454  0.12167920     1.73200
Fe707      Fe  0.64573985  0.87470403  0.12933193     1.54400
O708        O  0.63628375  0.84299154  0.13405670    -0.81900
O709        O  0.68491905  0.91424463  0.12779017    -0.80200
O710        O  0.66416345  0.82641719  0.14845352    -0.84400
O711        O  0.65963467  0.86134016  0.17960928    -0.79300
O712        O  0.65189869  0.86722698  0.09745584    -0.81000
O713        O  0.71829466  0.88958211  0.14816422    -0.83800
C714        C  0.64428546  0.87445292  0.17850736     0.97000
C715        C  0.64552612  0.82625337  0.14077070     1.04400
O716        O  0.67593378  0.87000148  0.13698136    -1.12800
O717        O  0.71478911  0.85760323  0.11454032    -0.75200
O718        O  0.70801169  0.83672879  0.14272730    -0.78700
O719        O  0.63764080  0.88231851  0.16091217    -0.79400
C720        C  0.71769319  0.84074438  0.12533912     0.95900
O721        O  0.70319628  0.87128458  0.17455970    -0.77300
O722        O  0.68341562  0.88304321  0.09249051    -0.82500
C723        C  0.66575828  0.92020490  0.12527680     0.98500
C724        C  0.66696692  0.87356595  0.08529266     1.04400
O725        O  0.65020357  0.90723086  0.12338112    -0.78200
C726        C  0.71763888  0.88343755  0.16745797     1.02700
Fe727      Fe  0.64920730  0.80010312  0.35126058     1.65800
Fe728      Fe  0.61082344  0.78641607  0.38652242     1.73200
Fe729      Fe  0.62269359  0.83913098  0.37767546     1.54400
O730        O  0.65475779  0.84580649  0.38281554    -0.81900
O731        O  0.58264545  0.80322648  0.38505491    -0.80200
O732        O  0.66998351  0.82495441  0.35848705    -0.84400
O733        O  0.63466386  0.81785046  0.32800890    -0.79300
O734        O  0.61992793  0.83414358  0.41087202    -0.81000
O735        O  0.60196132  0.77198462  0.35801501    -0.83800
C736        C  0.62916300  0.83728841  0.32775499     0.97000
C737        C  0.67079974  0.84024724  0.37177991     1.04400
O738        O  0.62761597  0.80864319  0.37205753    -1.12800
O739        O  0.63708232  0.76621548  0.38991219    -0.75200
O740        O  0.66476036  0.78155664  0.37331994    -0.78700
O741        O  0.62567812  0.84764104  0.34504025    -0.79400
C742        C  0.65689145  0.76722628  0.38532310     0.95900
O743        O  0.63238926  0.77376597  0.34015063    -0.77300
O744        O  0.61737482  0.79907913  0.41625141    -0.82500
C745        C  0.57679718  0.82140127  0.37840922     0.98500
C746        C  0.61922210  0.81800294  0.42336215     1.04400
O747        O  0.58992144  0.83600827  0.37314402    -0.78200
C748        C  0.61362305  0.76640861  0.34243274     1.02700
Fe749      Fe  0.80265761  0.65095353  0.35107807     1.65800
Fe750      Fe  0.78804262  0.61531643  0.38868830     1.73200
Fe751      Fe  0.84098668  0.62261874  0.37653631     1.54400
O752        O  0.84632536  0.61717007  0.34416235    -0.81900
O753        O  0.80584746  0.61510161  0.41659491    -0.80200
O754        O  0.82576597  0.64198801  0.32943537    -0.84400
O755        O  0.82241587  0.67312370  0.36471161    -0.79300
O756        O  0.83470357  0.59021790  0.37970369    -0.81000
O757        O  0.77518657  0.64393965  0.39885701    -0.83800
C758        C  0.84166923  0.67197102  0.37077301     0.97000
C759        C  0.83986344  0.62756334  0.32799787     1.04400
O760        O  0.81062478  0.62950188  0.37210064    -1.12800
O761        O  0.76655161  0.61365825  0.36308691    -0.75200
O762        O  0.78199204  0.63079866  0.33594346    -0.78700
O763        O  0.85119975  0.65432381  0.37389595    -0.79400
C764        C  0.76714940  0.61936681  0.34356416     0.95900
O765        O  0.77806612  0.66283329  0.36920191    -0.77300
O766        O  0.79925272  0.58574442  0.38007472    -0.82500
C767        C  0.82415375  0.62169412  0.42241356     0.98500
C768        C  0.81812508  0.57843250  0.37916074     1.04400
O769        O  0.83858638  0.62719634  0.40921991    -0.78200
C770        C  0.77063572  0.66026200  0.38784485     1.02700
Fe771      Fe  0.64740425  0.64664858  0.19873791     1.65800
Fe772      Fe  0.61169330  0.60888441  0.21170786     1.73200
Fe773      Fe  0.61835551  0.62300575  0.15964200     1.54400
O774        O  0.62227809  0.65582670  0.15286949    -0.81900
O775        O  0.62052269  0.58171386  0.19599579    -0.80200
O776        O  0.63167535  0.67077390  0.18375444    -0.84400
O777        O  0.66636743  0.64090111  0.17208821    -0.79300
O778        O  0.58633854  0.62835264  0.16615781    -0.81000
O779        O  0.63910867  0.60533658  0.23037560    -0.83800
C780        C  0.66633826  0.62803799  0.15634936     0.97000
C781        C  0.62639743  0.67221045  0.16431550     1.04400
O782        O  0.62578059  0.62619604  0.18999007    -1.12800
O783        O  0.60223282  0.63532043  0.22921448    -0.75200
O784        O  0.63156107  0.65536005  0.22648339    -0.78700
O785        O  0.64991147  0.61734395  0.15095970    -0.79400
C786        C  0.61362518  0.65109522  0.23499014     0.95900
O787        O  0.66471808  0.62410779  0.21486921    -0.77300
O788        O  0.58222324  0.60953688  0.19610736    -0.82500
C789        C  0.61727607  0.57616660  0.17679600     0.98500
C790        C  0.57449278  0.61942716  0.18010934     1.04400
O791        O  0.61372633  0.58979553  0.16206973    -0.78200
C792        C  0.65865873  0.61060397  0.22869220     1.02700
Fe793      Fe  0.20106302  0.34998312  0.34235240     1.65800
Fe794      Fe  0.21168968  0.39027268  0.37725306     1.73200
Fe795      Fe  0.16015612  0.37276555  0.37012603     1.54400
O796        O  0.15009567  0.36798205  0.33855382    -0.81900
O797        O  0.20013591  0.38314044  0.40741597    -0.80200
O798        O  0.17903598  0.35887658  0.31991781    -0.84400
O799        O  0.18127519  0.32619223  0.35347181    -0.79300
O800        O  0.15909468  0.40535419  0.36486330    -0.81000
O801        O  0.23473069  0.36669487  0.38166622    -0.83800
C802        C  0.16689010  0.32436431  0.36761542     0.97000
C803        C  0.15939025  0.36348542  0.32103163     1.04400
O804        O  0.19095573  0.37111114  0.36321221    -1.12800
O805        O  0.22556676  0.39959069  0.34846565    -0.75200
O806        O  0.22260259  0.37054370  0.32836649    -0.78700
O807        O  0.15848454  0.34041235  0.37666131    -0.79400
C808        C  0.22992949  0.38913579  0.33161554     0.95900
O809        O  0.22421348  0.33865716  0.36236937    -0.77300
O810        O  0.19161029  0.41633488  0.37483849    -0.82500
C811        C  0.18138710  0.38016964  0.41461886     0.98500
C812        C  0.17248419  0.42002522  0.36914801     1.04400
O813        O  0.16530606  0.37762292  0.40251500    -0.78200
C814        C  0.23685481  0.34751499  0.37543083     1.02700
Fe815      Fe  0.35047643  0.35203419  0.18913901     1.65800
Fe816      Fe  0.38809682  0.38820683  0.20307235     1.73200
Fe817      Fe  0.37826019  0.37726034  0.15004431     1.54400
O818        O  0.38234865  0.34508700  0.14401152    -0.81900
O819        O  0.38697517  0.41664014  0.18607109    -0.80200
O820        O  0.35773862  0.33063311  0.16512659    -0.84400
O821        O  0.32755378  0.36635392  0.17067736    -0.79300
O822        O  0.41129086  0.37893089  0.15449248    -0.81000
O823        O  0.36090847  0.39819574  0.21894785    -0.83800
C824        C  0.32814534  0.37300267  0.15152125     0.97000
C825        C  0.37166144  0.32915840  0.15046691     1.04400
O826        O  0.37222207  0.37271842  0.18070613    -1.12800
O827        O  0.39053955  0.36174653  0.22351129    -0.75200
O828        O  0.37184405  0.33609106  0.20781901    -0.78700
O829        O  0.34567327  0.37603315  0.14145418    -0.79400
C830        C  0.38424509  0.34242775  0.22245509     0.95900
O831        O  0.33991503  0.36977267  0.21507644    -0.77300
O832        O  0.41708824  0.37985347  0.18970650    -0.82500
C833        C  0.38059407  0.42279661  0.16776697     0.98500
C834        C  0.42374365  0.37831987  0.17056947     1.04400
O835        O  0.37540364  0.40983678  0.15305212    -0.78200
C836        C  0.34451367  0.38741269  0.22397650     1.02700
Fe837      Fe  0.35404061  0.20108635  0.34222870     1.65800
Fe838      Fe  0.38981954  0.21403701  0.38079029     1.73200
Fe839      Fe  0.37762157  0.16156470  0.37134485     1.54400
O840        O  0.34495681  0.15470494  0.36849150    -0.81900
O841        O  0.41855996  0.19926143  0.37494478    -0.80200
O842        O  0.32965288  0.18395535  0.35543104    -0.84400
O843        O  0.36209831  0.17620822  0.32201790    -0.79300
O844        O  0.37253581  0.16643861  0.40394787    -0.81000
O845        O  0.39543531  0.23294402  0.35371645    -0.83800
C846        C  0.37417039  0.15996413  0.32239440     0.97000
C847        C  0.32847580  0.16537162  0.36319243     1.04400
O848        O  0.37395170  0.19215608  0.36473683    -1.12800
O849        O  0.36229423  0.23068454  0.38842046    -0.75200
O850        O  0.34269696  0.22726187  0.35907444    -0.78700
O851        O  0.38299449  0.15334053  0.33944487    -0.79400
C852        C  0.34603463  0.23547216  0.37734543     0.95900
O853        O  0.37654187  0.21930477  0.32683309    -0.77300
O854        O  0.38658374  0.19847656  0.41004644    -0.82500
C855        C  0.42415280  0.17981089  0.37430990     0.98500
C856        C  0.37830332  0.18115855  0.41673478     1.04400
O857        O  0.41075541  0.16445538  0.37471174    -0.78200
C858        C  0.39020033  0.23238785  0.33402858     1.02700
Fe859      Fe  0.15867758  0.15187740  0.30934030     1.65800
Fe860      Fe  0.12101014  0.11574350  0.29398012     1.73200
Fe861      Fe  0.12915319  0.12610651  0.34751144     1.54400
O862        O  0.16058445  0.12802469  0.35828238    -0.81900
O863        O  0.09137990  0.12164878  0.30727106    -0.80200
O864        O  0.18004154  0.13998231  0.33097600    -0.84400
O865        O  0.14758728  0.17377604  0.33096674    -0.79300
O866        O  0.13310225  0.09350439  0.34405862    -0.81000
O867        O  0.11682520  0.14251283  0.27479222    -0.83800
C868        C  0.13397496  0.17474356  0.34596845     0.97000
C869        C  0.17835500  0.13293016  0.34983510     1.04400
O870        O  0.13628103  0.13119527  0.31691032    -1.12800
O871        O  0.14862206  0.10802457  0.27728967    -0.75200
O872        O  0.17248071  0.13276877  0.28652227    -0.78700
O873        O  0.12449261  0.15837963  0.35339550    -0.79400
C874        C  0.16683807  0.11680921  0.27543245     0.95900
O875        O  0.14039541  0.16650203  0.28647503    -0.77300
O876        O  0.12371503  0.08699883  0.31012432    -0.82500
C877        C  0.08431184  0.12265158  0.32626257     0.98500
C878        C  0.12939774  0.08077873  0.32863895     1.04400
O879        O  0.09655773  0.12332630  0.34238271    -0.78200
C880        C  0.12576845  0.16070962  0.27373987     1.02700
Fe881      Fe  0.31041086  0.15573737  0.14936914     1.65800
Fe882      Fe  0.29710948  0.11449817  0.11729098     1.73200
Fe883      Fe  0.34957308  0.13033817  0.12151801     1.54400
O884        O  0.35384924  0.16322270  0.11745567    -0.81900
O885        O  0.31377857  0.08791714  0.12718422    -0.80200
O886        O  0.32554789  0.17891320  0.13204742    -0.84400
O887        O  0.33642537  0.15231942  0.16898310    -0.79300
O888        O  0.34290183  0.12882002  0.08913025    -0.81000
O889        O  0.27872201  0.11358796  0.14540248    -0.83800
C890        C  0.35387345  0.14219121  0.16924221     0.97000
C891        C  0.34279090  0.17980267  0.12142831     1.04400
O892        O  0.31916656  0.13350507  0.12930560    -1.12800
O893        O  0.27881407  0.13939246  0.10611321    -0.75200
O894        O  0.28240469  0.16257032  0.13286893    -0.78700
O895        O  0.36041201  0.13170386  0.15312172    -0.79400
C896        C  0.27309637  0.15606053  0.11600294     0.95900
O897        O  0.29512685  0.13439083  0.16883059    -0.77300
O898        O  0.31099139  0.11333403  0.08711009    -0.82500
C899        C  0.33356465  0.08329257  0.12717042     0.98500
C900        C  0.32769792  0.12083787  0.07833103     1.04400
O901        O  0.34830432  0.09710182  0.12426390    -0.78200
C902        C  0.28035908  0.12148953  0.16410521     1.02700
Fe903      Fe  0.15639163  0.29831658  0.14626795     1.65800
Fe904      Fe  0.11745562  0.28537361  0.11090691     1.73200
Fe905      Fe  0.12969425  0.33800025  0.12100765     1.54400
O906        O  0.12624389  0.34481780  0.15316066    -0.81900
O907        O  0.11861068  0.30161936  0.08203989    -0.80200
O908        O  0.14972730  0.32262077  0.16785878    -0.84400
O909        O  0.17899548  0.31619431  0.13094277    -0.79300
O910        O  0.09669587  0.33452526  0.11998594    -0.81000
O911        O  0.14422086  0.26853786  0.10096895    -0.83800
C912        C  0.17940935  0.33577661  0.12623478     0.97000
C913        C  0.13693789  0.33829725  0.16905817     1.04400
O914        O  0.13436742  0.30723930  0.12605296    -1.12800
O915        O  0.11358525  0.26642305  0.13827817    -0.75200
O916        O  0.13573944  0.27919712  0.16301435    -0.78700
O917        O  0.16230867  0.34620177  0.12270599    -0.79400
C918        C  0.12076019  0.26677545  0.15735135     0.95900
O919        O  0.16661587  0.27287043  0.12809193    -0.77300
O920        O  0.08912231  0.29988014  0.11856907    -0.82500
C921        C  0.12543175  0.31960842  0.07551308     0.98500
C922        C  0.08338509  0.31918089  0.12039984     1.04400
O923        O  0.13217878  0.33414105  0.08807965    -0.78200
C924        C  0.16159217  0.26427066  0.11045422     1.02700
Fe925      Fe  0.34397891  0.80030947  0.35071875     1.65800
Fe926      Fe  0.38137607  0.78625838  0.38777472     1.73200
Fe927      Fe  0.37066192  0.83911515  0.37797282     1.54400
O928        O  0.36717798  0.84900130  0.34665165    -0.81900
O929        O  0.37605562  0.80015779  0.41714360    -0.80200
O930        O  0.35528394  0.82110065  0.32815629    -0.84400
O931        O  0.32218219  0.82227756  0.36181882    -0.79300
O932        O  0.40315197  0.83528271  0.37193624    -0.81000
O933        O  0.35477039  0.76704004  0.39320454    -0.83800
C934        C  0.32155964  0.83743102  0.37529970     0.97000
C935        C  0.36205403  0.84007514  0.32925587     1.04400
O936        O  0.36531970  0.80849962  0.37218971    -1.12800
O937        O  0.38863523  0.76915181  0.36037283    -0.75200
O938        O  0.36283257  0.77694869  0.33724361    -0.78700
O939        O  0.33832920  0.84499011  0.38409930    -0.79400
C940        C  0.37927589  0.76642479  0.34258504     0.95900
O941        O  0.32997239  0.77838435  0.37030925    -0.77300
O942        O  0.41003422  0.80252992  0.38401762    -0.82500
C943        C  0.37558983  0.81940604  0.42330553     0.98500
C944        C  0.41618710  0.82033521  0.37634872     1.04400
O945        O  0.37507793  0.83498057  0.41041895    -0.78200
C946        C  0.33625280  0.76601921  0.38497111     1.02700
Fe947      Fe  0.14625319  0.84688916  0.30471164     1.65800
Fe948      Fe  0.11231351  0.88644292  0.29160038     1.73200
Fe949      Fe  0.12285398  0.87547002  0.34416565     1.54400
O950        O  0.12351991  0.84276751  0.35253096    -0.81900
O951        O  0.12334334  0.91438700  0.30468807    -0.80200
O952        O  0.13030431  0.82460701  0.32254642    -0.84400
O953        O  0.16823494  0.85245856  0.32900399    -0.79300
O954        O  0.08974639  0.87353845  0.34140391    -0.81000
O955        O  0.13882814  0.88716635  0.27075622    -0.83800
C956        C  0.17088126  0.86667900  0.34325863     0.97000
C957        C  0.12523144  0.82526524  0.34214071     1.04400
O958        O  0.12689844  0.86951792  0.31355233    -1.12800
O959        O  0.10012280  0.86009284  0.27611468    -0.75200
O960        O  0.12784656  0.83808515  0.27843732    -0.78700
O961        O  0.15561013  0.87843095  0.34958312    -0.79400
C962        C  0.11013868  0.84359838  0.27019752     0.95900
O963        O  0.16363046  0.86751214  0.28657785    -0.77300
O964        O  0.08375279  0.88748856  0.30918906    -0.82500
C965        C  0.12391440  0.92113002  0.32376604     0.98500
C966        C  0.07699346  0.88049655  0.32716340     1.04400
O967        O  0.12196812  0.90867919  0.33980062    -0.78200
C968        C  0.15789942  0.88010903  0.27194279     1.02700
Fe969      Fe  0.30283379  0.85150197  0.15463584     1.65800
Fe970      Fe  0.29097360  0.88815435  0.11651839     1.73200
Fe971      Fe  0.34298477  0.87797280  0.12952726     1.54400
O972        O  0.35125301  0.87471914  0.16160552    -0.81900
O973        O  0.30559563  0.87897590  0.08825084    -0.80200
O974        O  0.32205768  0.86300298  0.17809491    -0.84400
O975        O  0.32536148  0.82961294  0.14506406    -0.79300
O976        O  0.33856855  0.91037104  0.13494871    -0.81000
O977        O  0.26929197  0.86279937  0.11370508    -0.83800
C978        C  0.34118884  0.82900013  0.13234436     0.97000
C979        C  0.34109329  0.86955943  0.17837295     1.04400
O980        O  0.31222610  0.87246791  0.13356337    -1.12800
O981        O  0.27468593  0.89847963  0.14372906    -0.75200
O982        O  0.27931039  0.87122411  0.16633290    -0.78700
O983        O  0.34926010  0.84571841  0.12392799    -0.79400
C984        C  0.27068095  0.88881577  0.16123134     0.95900
O985        O  0.28203961  0.83694573  0.13429096    -0.77300
O986        O  0.30879509  0.91623222  0.11675143    -0.82500
C987        C  0.32523697  0.88013845  0.08303396     0.98500
C988        C  0.32538937  0.92309366  0.12642208     1.04400
O989        O  0.34010022  0.88212118  0.09671290    -0.78200
C990        C  0.26821528  0.84411730  0.12153538     1.02700
Fe991      Fe  0.14231134  0.70150335  0.15436136     1.65800
Fe992      Fe  0.10715541  0.71490939  0.11610663     1.73200
Fe993      Fe  0.11754902  0.66238747  0.12675160     1.54400
O994        O  0.14982412  0.65681661  0.12116649    -0.81900
O995        O  0.07872480  0.69765814  0.11652103    -0.80200
O996        O  0.16371648  0.67683989  0.14716659    -0.84400
O997        O  0.12588444  0.68381371  0.17595759    -0.79300
O998        O  0.11371839  0.66691562  0.09356028    -0.81000
O999        O  0.09644957  0.73011182  0.14335518    -0.83800
C1000       C  0.12423710  0.66383712  0.17643494     0.97000
C1001       C  0.16547462  0.66237583  0.13290739     1.04400
O1002       O  0.12250628  0.69297373  0.13208159    -1.12800
O1003       O  0.13389638  0.73485062  0.11392246    -0.75200
O1004       O  0.15932845  0.72071579  0.13435801    -0.78700
O1005       O  0.12194480  0.65308196  0.15922195    -0.79400
C1006       C  0.15303105  0.73438595  0.12087052     0.95900
O1007       O  0.12425058  0.72710078  0.16500313    -0.77300
O1008       O  0.11611173  0.70191765  0.08747079    -0.82500
C1009       C  0.07210347  0.68040407  0.12508105     0.98500
C1010       C  0.11581259  0.68280780  0.08092001     1.04400
O1011       O  0.08480008  0.66605769  0.13196931    -0.78200
C1012       C  0.10600103  0.73468960  0.16058760     1.02700
Fe1013     Fe  0.34127279  0.65305833  0.19485858     1.65800
Fe1014     Fe  0.37647496  0.61318363  0.20597962     1.73200
Fe1015     Fe  0.36802910  0.62854644  0.15372236     1.54400
O1016       O  0.33584176  0.63103456  0.14458990    -0.81900
O1017       O  0.40620053  0.61913934  0.19300913    -0.80200
O1018       O  0.31860643  0.64472196  0.17261643    -0.84400
O1019       O  0.35323739  0.67643833  0.17494151    -0.79300
O1020       O  0.36429537  0.59563623  0.15426651    -0.81000
O1021       O  0.38210802  0.63739808  0.22787547    -0.83800
C1022       C  0.36534436  0.67752732  0.15868548     0.97000
C1023       C  0.31882867  0.63746950  0.15370745     1.04400
O1024       O  0.36191230  0.63156077  0.18481836    -1.12800
O1025       O  0.34830876  0.60496053  0.22155822    -0.75200
O1026       O  0.32679636  0.63264730  0.21656418    -0.78700
O1027       O  0.37279421  0.66106798  0.14951591    -0.79400
C1028       C  0.33110526  0.61493906  0.22545580     0.95900
O1029       O  0.36099932  0.66437843  0.21850419    -0.77300
O1030       O  0.37303802  0.58628032  0.18753570    -0.82500
C1031       C  0.41320858  0.62265726  0.17427825     0.98500
C1032       C  0.36792242  0.58163475  0.16849276     1.04400
O1033       O  0.40098177  0.62578004  0.15832735    -0.78200
C1034       C  0.37487107  0.65606722  0.23061937     1.02700
Fe1035     Fe  0.19142244  0.64959045  0.35025773     1.65800
Fe1036     Fe  0.20293052  0.61294783  0.38832497     1.73200
Fe1037     Fe  0.15054844  0.62468164  0.37653538     1.54400
O1038       O  0.14251243  0.65689012  0.37294781    -0.81900
O1039       O  0.18853723  0.58425954  0.38088182    -0.80200
O1040       O  0.17213277  0.67296971  0.36171694    -0.84400
O1041       O  0.16886965  0.64010539  0.32816009    -0.79300
O1042       O  0.15370982  0.62981210  0.40921545    -0.81000
O1043       O  0.22408698  0.60833671  0.36265237    -0.83800
C1044       C  0.15232087  0.62836262  0.32765472     0.97000
C1045       C  0.15284082  0.67353536  0.36752536     1.04400
O1046       O  0.18160233  0.62896561  0.37161687    -1.12800
O1047       O  0.21918350  0.64019992  0.39748899    -0.75200
O1048       O  0.21496558  0.66193846  0.36969696    -0.78700
O1049       O  0.14431675  0.61967889  0.34423296    -0.79400
C1050       C  0.22318242  0.65746525  0.38767224     0.95900
O1051       O  0.21238405  0.62892611  0.33614924    -0.77300
O1052       O  0.18566753  0.61588622  0.41659185    -0.82500
C1053       C  0.16909100  0.57844471  0.38021088     0.98500
C1054       C  0.16812652  0.62429382  0.42239817     1.04400
O1055       O  0.15371736  0.59171233  0.38036524    -0.78200
C1056       C  0.22540169  0.61547088  0.34362931     1.02700
C1057       C  0.31595689  0.60670103  0.24212441     0.01100
C1058       C  0.32371395  0.59821285  0.26172383     0.03900
C1059       C  0.30983024  0.59576339  0.27940037    -0.12100
C1060       C  0.28813990  0.60135237  0.27765876     0.23200
C1061       C  0.27995480  0.60762576  0.25765244    -0.12700
C1062       C  0.29370863  0.61023074  0.23995948     0.04700
C1063       C  0.27440498  0.60320473  0.29712230     0.27100
C1064       C  0.26087474  0.58634362  0.30365485    -0.13400
C1065       C  0.24547049  0.58968941  0.31989215     0.05200
C1066       C  0.24376911  0.60984166  0.32975709    -0.09300
C1067       C  0.25843534  0.62611229  0.32430449     0.06000
C1068       C  0.27363195  0.62283172  0.30808669    -0.13700
Br1069     Br  0.24986320  0.61371478  0.25490660    -0.05800
Br1070     Br  0.35356658  0.59139457  0.26552531    -0.00200
Br1071     Br  0.22588431  0.56725295  0.32770658     0.00300
Br1072     Br  0.29287217  0.64565535  0.30028085    -0.04100
Br1073     Br  0.28175020  0.61861347  0.21275052     0.00400
Br1074     Br  0.32063782  0.58594124  0.30655500    -0.03400
Br1075     Br  0.26316370  0.55898557  0.28984776    -0.04300
Br1076     Br  0.25736587  0.65331491  0.33876182    -0.00300
C1077       C  0.18670154  0.65173815  0.13056477     0.01100
C1078       C  0.19808299  0.65205772  0.11101797     0.03900
C1079       C  0.21999586  0.64655330  0.11050394    -0.12100
C1080       C  0.23052789  0.64024762  0.12942101     0.23200
C1081       C  0.21846802  0.63740842  0.14827630    -0.12700
C1082       C  0.19666983  0.64294779  0.14877103     0.04700
C1083       C  0.25440220  0.63913226  0.13049623     0.27100
C1084       C  0.26513661  0.61934408  0.13165838    -0.13400
C1085       C  0.28688129  0.61857876  0.13782148     0.05200
C1086       C  0.29813739  0.63764042  0.14206329    -0.09300
C1087       C  0.28805845  0.65740412  0.13831359     0.06000
C1088       C  0.26621116  0.65818002  0.13301526    -0.13700
Br1089     Br  0.23208722  0.62693851  0.17386892    -0.05800
Br1090     Br  0.18403959  0.66046101  0.08504422    -0.00200
Br1091     Br  0.30081674  0.59151801  0.14201916     0.00300
Br1092     Br  0.25208231  0.68545163  0.13079232    -0.04100
Br1093     Br  0.18015503  0.63761415  0.17424486     0.00400
Br1094     Br  0.23595262  0.64854038  0.08417627    -0.03400
Br1095     Br  0.24971104  0.59336280  0.12573966    -0.04300
Br1096     Br  0.30426061  0.68355026  0.14082928    -0.00300
C1097       C  0.14198469  0.62570251  0.30659329     0.01100
C1098       C  0.12435018  0.63858930  0.30123614     0.03900
C1099       C  0.11854329  0.64133883  0.27962158    -0.12100
C1100       C  0.13045077  0.63130374  0.26332130     0.23200
C1101       C  0.14696821  0.61707863  0.26885741    -0.12700
C1102       C  0.15258365  0.61415475  0.29046454     0.04700
C1103       C  0.12858063  0.63882717  0.24079651     0.27100
C1104       C  0.11469002  0.62893095  0.22604729    -0.13400
C1105       C  0.11333283  0.63651371  0.20474357     0.05200
C1106       C  0.12634913  0.65374665  0.19799206    -0.09300
C1107       C  0.14108659  0.66282451  0.21278235     0.06000
C1108       C  0.14160949  0.65585935  0.23410475    -0.13700
Br1109     Br  0.16340657  0.60347720  0.24663774    -0.05800
Br1110     Br  0.10963394  0.65422910  0.32335237    -0.00200
Br1111     Br  0.09300614  0.62382112  0.18538715     0.00300
Br1112     Br  0.16012421  0.66998192  0.25450994    -0.04100
Br1113     Br  0.17568353  0.59532994  0.29806015     0.00400
Br1114     Br  0.09577202  0.66060409  0.27212266    -0.03400
Br1115     Br  0.09738443  0.60521832  0.23535642    -0.04300
Br1116     Br  0.16184783  0.68421450  0.20412124    -0.00300
C1117       C  0.16860408  0.75096680  0.11419459     0.01100
C1118       C  0.19031499  0.74540809  0.11115363     0.03900
C1119       C  0.20603342  0.76142476  0.11002827    -0.12100
C1120       C  0.20008072  0.78303661  0.11072025     0.23200
C1121       C  0.17839603  0.78868967  0.11182459    -0.12700
C1122       C  0.16269133  0.77276782  0.11407023     0.04700
C1123       C  0.21666556  0.79974454  0.11286693     0.27100
C1124       C  0.22200939  0.80721814  0.13337884    -0.13400
C1125       C  0.23798446  0.82273622  0.13579283     0.05200
C1126       C  0.24934851  0.83035444  0.11776019    -0.09300
C1127       C  0.24345388  0.82335093  0.09714507     0.06000
C1128       C  0.22706396  0.80806603  0.09471936    -0.13700
Br1129     Br  0.17052994  0.81848588  0.11189644    -0.05800
Br1130     Br  0.19887288  0.71587212  0.10886631    -0.00200
Br1131     Br  0.24367262  0.83397066  0.16401886     0.00300
Br1132     Br  0.21899259  0.79800951  0.06670076    -0.04100
Br1133     Br  0.13369381  0.78145261  0.11964288     0.00400
Br1134     Br  0.23591410  0.75384879  0.10923360    -0.03400
Br1135     Br  0.20778277  0.79567747  0.15831157    -0.04300
Br1136     Br  0.25805961  0.83391531  0.07232028    -0.00300
C1137       C  0.34987442  0.80746376  0.12759807     0.01100
C1138       C  0.37170563  0.80259196  0.13047271     0.03900
C1139       C  0.37838617  0.78106273  0.13096032    -0.12100
C1140       C  0.36308326  0.76444467  0.13058374     0.23200
C1141       C  0.34151354  0.76938878  0.12636942    -0.12700
C1142       C  0.33529738  0.79070603  0.12355584     0.04700
C1143       C  0.36894944  0.74214553  0.13654543     0.27100
C1144       C  0.36734232  0.72546810  0.12143672    -0.13400
C1145       C  0.36740003  0.70400014  0.12827607     0.05200
C1146       C  0.37027105  0.69913356  0.15017392    -0.09300
C1147       C  0.37509613  0.71577456  0.16462401     0.06000
C1148       C  0.37359828  0.73719101  0.15807828    -0.13700
Br1149     Br  0.31986216  0.74731119  0.12635199    -0.05800
Br1150     Br  0.39218167  0.82501580  0.13570477    -0.00200
Br1151     Br  0.36155122  0.68169147  0.10779205     0.00300
Br1152     Br  0.37607471  0.75955245  0.17922256    -0.04100
Br1153     Br  0.30668937  0.79690694  0.11386619     0.00400
Br1154     Br  0.40832738  0.77419929  0.13306355    -0.03400
Br1155     Br  0.36360620  0.73219334  0.09153964    -0.04300
Br1156     Br  0.38400899  0.70922265  0.19347574    -0.00300
C1157       C  0.09597842  0.74946500  0.17632668     0.01100
C1158       C  0.09787116  0.74508125  0.19843843     0.03900
C1159       C  0.09404594  0.76119433  0.21357321    -0.12100
C1160       C  0.08734932  0.78150852  0.20679185     0.23200
C1161       C  0.08188151  0.78476639  0.18518650    -0.12700
C1162       C  0.08628967  0.76883588  0.16986234     0.04700
C1163       C  0.09053432  0.80005634  0.22124714     0.27100
C1164       C  0.07648875  0.80426764  0.23840812    -0.13400
C1165       C  0.08223055  0.81935978  0.25418095     0.05200
C1166       C  0.10169414  0.83059700  0.25237982    -0.09300
C1167       C  0.11415705  0.82831552  0.23377524     0.06000
C1168       C  0.10912718  0.81254474  0.21870433    -0.13700
Br1169     Br  0.07017274  0.81190312  0.17658760    -0.05800
Br1170     Br  0.10528858  0.71688460  0.20829496    -0.00200
Br1171     Br  0.06387538  0.82419691  0.27844917     0.00300
Br1172     Br  0.12862204  0.80718575  0.19529952    -0.04100
Br1173     Br  0.08022361  0.77456887  0.14018514     0.00400
Br1174     Br  0.09982731  0.75596789  0.24345913    -0.03400
Br1175     Br  0.04988830  0.78887987  0.24058116    -0.04300
Br1176     Br  0.13738429  0.84772944  0.22817119    -0.00300
C1177       C  0.12303568  0.80444807  0.35318181     0.01100
C1178       C  0.14022664  0.79688397  0.36564847     0.03900
C1179       C  0.14113328  0.77524928  0.37169264    -0.12100
C1180       C  0.12491733  0.76100857  0.36523765     0.23200
C1181       C  0.10703530  0.76877384  0.35408217    -0.12700
C1182       C  0.10632330  0.79030725  0.34763655     0.04700
C1183       C  0.12927274  0.73771442  0.36545662     0.27100
C1184       C  0.13949343  0.72867808  0.34758260    -0.13400
C1185       C  0.14560306  0.70719081  0.34786427     0.05200
C1186       C  0.14235522  0.69466279  0.36642806    -0.09300
C1187       C  0.13108187  0.70335399  0.38393775     0.06000
C1188       C  0.12435637  0.72486601  0.38332580    -0.13700
Br1189     Br  0.08470154  0.74918923  0.34573057    -0.05800
Br1190     Br  0.16431389  0.81520623  0.37148786    -0.00200
Br1191     Br  0.15828640  0.69501686  0.32237825     0.00300
Br1192     Br  0.10888979  0.73700172  0.40699369    -0.04100
Br1193     Br  0.08371236  0.79963522  0.32908377     0.00400
Br1194     Br  0.16585542  0.76443641  0.38661235    -0.03400
Br1195     Br  0.14599175  0.74611195  0.32286992    -0.04300
Br1196     Br  0.12603695  0.68639461  0.40918169    -0.00300
C1197       C  0.25461435  0.89728344  0.17637965     0.01100
C1198       C  0.23284126  0.89745244  0.17056475     0.03900
C1199       C  0.21693792  0.89884921  0.18647377    -0.12100
C1200       C  0.22272008  0.89983582  0.20824416     0.23200
C1201       C  0.24446414  0.90145188  0.21391391    -0.12700
C1202       C  0.26034944  0.90041150  0.19798662     0.04700
C1203       C  0.20634818  0.89543866  0.22497836     0.27100
C1204       C  0.19281820  0.91163918  0.23272250    -0.13400
C1205       C  0.17674847  0.90680723  0.24788320     0.05200
C1206       C  0.17422094  0.88566043  0.25545971    -0.09300
C1207       C  0.18814185  0.86950366  0.24773569     0.06000
C1208       C  0.20399680  0.87443607  0.23259796    -0.13700
Br1209     Br  0.25247505  0.90285648  0.24368972    -0.05800
Br1210     Br  0.22467417  0.89312053  0.14113886    -0.00200
Br1211     Br  0.15915337  0.92949800  0.25899288     0.00300
Br1212     Br  0.22259162  0.85218649  0.22199842    -0.04100
Br1213     Br  0.29010959  0.90222475  0.20581920     0.00400
Br1214     Br  0.18715515  0.89720788  0.17870488    -0.03400
Br1215     Br  0.19664271  0.94047132  0.22264247    -0.04300
Br1216     Br  0.18548000  0.84004106  0.25691293    -0.00300
C1217       C  0.35163575  0.86961624  0.19931518     0.01100
C1218       C  0.35427218  0.88872977  0.21085032     0.03900
C1219       C  0.35891261  0.88795964  0.23288909    -0.12100
C1220       C  0.36042942  0.86806947  0.24332597     0.23200
C1221       C  0.35883512  0.84899453  0.23146558    -0.12700
C1222       C  0.35491805  0.84981689  0.20943026     0.04700
C1223       C  0.36228612  0.86666129  0.26687826     0.27100
C1224       C  0.38176577  0.86023174  0.27612827    -0.13400
C1225       C  0.38210944  0.85260316  0.29726425     0.05200
C1226       C  0.36315232  0.85228316  0.30931464    -0.09300
C1227       C  0.34427657  0.86110289  0.30094321     0.06000
C1228       C  0.34370118  0.86796404  0.27957712    -0.13700
Br1229     Br  0.36027490  0.82160903  0.24566629    -0.05800
Br1230     Br  0.35007990  0.91573295  0.19672743    -0.00200
Br1231     Br  0.40798516  0.84099116  0.30920152     0.00300
Br1232     Br  0.31701867  0.87724304  0.26724055    -0.04100
Br1233     Br  0.35318049  0.82367338  0.19309941     0.00400
Br1234     Br  0.36203164  0.91394967  0.24906670    -0.03400
Br1235     Br  0.40747398  0.86028473  0.25915920    -0.04300
Br1236     Br  0.31895065  0.86263498  0.31851178    -0.00300
C1237       C  0.38114075  0.66827361  0.24975430     0.01100
C1238       C  0.40132123  0.67808186  0.25142699     0.03900
C1239       C  0.40533660  0.69261033  0.26821144    -0.12100
C1240       C  0.38900995  0.69758628  0.28298352     0.23200
C1241       C  0.36940904  0.68646493  0.28212935    -0.12700
C1242       C  0.36569460  0.67159168  0.26577929     0.04700
C1243       C  0.39137998  0.71571361  0.29816414     0.27100
C1244       C  0.39395193  0.71191042  0.32021244    -0.13400
C1245       C  0.39106622  0.72865848  0.33500040     0.05200
C1246       C  0.38689922  0.74963408  0.32762388    -0.09300
C1247       C  0.38709154  0.75372774  0.30540745     0.06000
C1248       C  0.38848857  0.73675185  0.29076327    -0.13700
Br1249     Br  0.34704719  0.69237995  0.30259261    -0.05800
Br1250     Br  0.42293091  0.67228240  0.23026044    -0.00200
Br1251     Br  0.39059507  0.72198839  0.36515431     0.00300
Br1252     Br  0.38471293  0.74214795  0.26058703    -0.04100
Br1253     Br  0.33931872  0.65561769  0.26526426     0.00400
Br1254     Br  0.43283343  0.70625848  0.27068855    -0.03400
Br1255     Br  0.40016398  0.68337510  0.33002369    -0.04300
Br1256     Br  0.38563411  0.78266757  0.29490424    -0.00300
C1257       C  0.29997543  0.84615709  0.38017049     0.01100
C1258       C  0.28290735  0.83167675  0.38330427     0.03900
C1259       C  0.26168235  0.83818895  0.38004233    -0.12100
C1260       C  0.25711511  0.85972749  0.37551778     0.23200
C1261       C  0.27390440  0.87485558  0.37567307    -0.12700
C1262       C  0.29535651  0.86806894  0.37763840     0.04700
C1263       C  0.23524570  0.86564184  0.36802064     0.27100
C1264       C  0.23147967  0.86793651  0.34594231    -0.13400
C1265       C  0.21052270  0.87035191  0.33823612     0.05200
C1266       C  0.19284931  0.86925586  0.35231752    -0.09300
C1267       C  0.19672457  0.86860101  0.37461106     0.06000
C1268       C  0.21789911  0.86696245  0.38240075    -0.13700
Br1269     Br  0.26746612  0.90464559  0.37163582    -0.05800
Br1270     Br  0.28859578  0.80276609  0.39222573    -0.00200
Br1271     Br  0.20640020  0.87621782  0.30829391     0.00300
Br1272     Br  0.22329908  0.86563990  0.41272742    -0.04100
Br1273     Br  0.31822357  0.88860631  0.37525886     0.00400
Br1274     Br  0.23913508  0.81707463  0.37958318    -0.03400
Br1275     Br  0.25500305  0.86643967  0.32594637    -0.04300
Br1276     Br  0.17323848  0.86886860  0.39456746    -0.00300
C1277       C  0.32150974  0.74871775  0.39095916     0.01100
C1278       C  0.31491815  0.73448487  0.37477837     0.03900
C1279       C  0.29830786  0.72000745  0.37864438    -0.12100
C1280       C  0.28886701  0.71885441  0.39905027     0.23200
C1281       C  0.29607597  0.73236135  0.41560546    -0.12700
C1282       C  0.31223389  0.74756653  0.41147050     0.04700
C1283       C  0.27107971  0.70358006  0.40239609     0.27100
C1284       C  0.24991130  0.71026335  0.39896379    -0.13400
C1285       C  0.23360776  0.69500683  0.39639308     0.05200
C1286       C  0.23854137  0.67300690  0.39677247    -0.09300
C1287       C  0.25930134  0.66644168  0.40264336     0.06000
C1288       C  0.27558536  0.68175585  0.40522797    -0.13700
Br1289     Br  0.28332892  0.73034568  0.44358448    -0.05800
Br1290     Br  0.32874363  0.73470015  0.34710633    -0.00200
Br1291     Br  0.20453869  0.70434025  0.39207532     0.00300
Br1292     Br  0.30464154  0.67286999  0.41028585    -0.04100
Br1293     Br  0.32065587  0.76762314  0.43329805     0.00400
Br1294     Br  0.28779830  0.70239570  0.35555823    -0.03400
Br1295     Br  0.24369733  0.74025370  0.39566077    -0.04300
Br1296     Br  0.26619155  0.63655361  0.40524777    -0.00300
C1297       C  0.32906299  0.94682627  0.12730903     0.01100
C1298       C  0.31161288  0.96128235  0.12604652     0.03900
C1299       C  0.31521090  0.98349161  0.12542447    -0.12100
C1300       C  0.33598082  0.99179371  0.12794929     0.23200
C1301       C  0.35333014  0.97772602  0.12998503    -0.12700
C1302       C  0.35011887  0.95542299  0.12894037     0.04700
C1303       C  0.33917929  0.01537987  0.12923468     0.27100
C1304       C  0.34768206  0.02686185  0.11174308    -0.13400
C1305       C  0.34850075  0.04934631  0.11234560     0.05200
C1306       C  0.33919802  0.06047093  0.12960339    -0.09300
C1307       C  0.33214128  0.04901453  0.14767817     0.06000
C1308       C  0.33253491  0.02654400  0.14766811    -0.13700
Br1309     Br  0.38164498  0.98921538  0.13448377    -0.05800
Br1310     Br  0.28219100  0.95159626  0.12666816    -0.00200
Br1311     Br  0.36192247  0.06484499  0.08929071     0.00300
Br1312     Br  0.32316722  0.01093775  0.17258970    -0.04100
Br1313     Br  0.37507414  0.93734067  0.12870289     0.00400
Br1314     Br  0.29158342  0.00284359  0.12094759    -0.03400
Br1315     Br  0.35672904  0.01195775  0.08630950    -0.04300
Br1316     Br  0.32232527  0.06423347  0.17258905    -0.00300
C1317       C  0.25432904  0.16813179  0.10842580     0.01100
C1318       C  0.23673268  0.17054112  0.12223925     0.03900
C1319       C  0.22082851  0.18556440  0.11766901    -0.12100
C1320       C  0.22151551  0.19710155  0.09832920     0.23200
C1321       C  0.23758620  0.19260772  0.08315298    -0.12700
C1322       C  0.25428551  0.17844275  0.08837197     0.04700
C1323       C  0.20663643  0.21529624  0.09536129     0.27100
C1324       C  0.18480796  0.21167134  0.09117290    -0.13400
C1325       C  0.16988081  0.22826545  0.09405246     0.05200
C1326       C  0.17685095  0.24852003  0.10131127    -0.09300
C1327       C  0.19904828  0.25272155  0.10252880     0.06000
C1328       C  0.21384856  0.23611679  0.09984629    -0.13700
Br1329     Br  0.23698856  0.20649648  0.05566573    -0.05800
Br1330     Br  0.23379131  0.15241842  0.14692736    -0.00200
Br1331     Br  0.14000311  0.22249760  0.08926582     0.00300
Br1332     Br  0.24398105  0.24160022  0.10393868    -0.04100
Br1333     Br  0.27747531  0.17399451  0.06856965     0.00400
Br1334     Br  0.19889345  0.19122550  0.13867686    -0.03400
Br1335     Br  0.17538809  0.18347369  0.08301245    -0.04300
Br1336     Br  0.20946231  0.28129168  0.10775584    -0.00300
C1337       C  0.12637211  0.94455715  0.32716230     0.01100
C1338       C  0.14117527  0.95272040  0.34222822     0.03900
C1339       C  0.14315263  0.97497888  0.34532762    -0.12100
C1340       C  0.13028882  0.98915008  0.33356010     0.23200
C1341       C  0.11553537  0.98111437  0.31864340    -0.12700
C1342       C  0.11408595  0.95906130  0.31487442     0.04700
C1343       C  0.13308857  0.01264686  0.33525021     0.27100
C1344       C  0.12041754  0.02452609  0.34955090    -0.13400
C1345       C  0.11953547  0.04693888  0.34781039     0.05200
C1346       C  0.13181955  0.05755938  0.33210903    -0.09300
C1347       C  0.14549873  0.04568942  0.31869281     0.06000
C1348       C  0.14600416  0.02330496  0.32016760    -0.13700
Br1349     Br  0.09724946  0.00064313  0.30324016    -0.05800
Br1350     Br  0.16044140  0.93374681  0.35695252    -0.00200
Br1351     Br  0.09983072  0.06277021  0.36543404     0.00300
Br1352     Br  0.16345327  0.00701543  0.30066131    -0.04100
Br1353     Br  0.09567523  0.94944161  0.29205760     0.00400
Br1354     Br  0.16369995  0.98627197  0.36533889    -0.03400
Br1355     Br  0.10342142  0.00985608  0.37069660    -0.04300
Br1356     Br  0.16345140  0.06001547  0.29804456    -0.00300
C1357       C  0.26382129  0.11682029  0.18070176     0.01100
C1358       C  0.25433646  0.09633843  0.18244856     0.03900
C1359       C  0.23765443  0.09269238  0.19722112    -0.12100
C1360       C  0.23042989  0.10933519  0.21046438     0.23200
C1361       C  0.23984275  0.12969257  0.20894629    -0.12700
C1362       C  0.25648280  0.13349647  0.19430436     0.04700
C1363       C  0.21338365  0.10573060  0.22665254     0.27100
C1364       C  0.19171701  0.10800667  0.22100801    -0.13400
C1365       C  0.17598921  0.10960160  0.23707877     0.05200
C1366       C  0.18199316  0.10927725  0.25888127    -0.09300
C1367       C  0.20349933  0.10535511  0.26437878     0.06000
C1368       C  0.21907444  0.10330013  0.24829437    -0.13700
Br1369     Br  0.22944834  0.15262598  0.22689598    -0.05800
Br1370     Br  0.26470789  0.07277602  0.16557127    -0.00200
Br1371     Br  0.14664910  0.11464304  0.22901732     0.00300
Br1372     Br  0.24860731  0.09873283  0.25582116    -0.04100
Br1373     Br  0.26782411  0.16229638  0.19255020     0.00400
Br1374     Br  0.22454724  0.06490170  0.19945007    -0.03400
Br1375     Br  0.18389638  0.11065229  0.19127693    -0.04300
Br1376     Br  0.21190466  0.10376153  0.29399485    -0.00300
C1377       C  0.12008222  0.17565362  0.25631211     0.01100
C1378       C  0.13660091  0.18425190  0.24347242     0.03900
C1379       C  0.13194807  0.19961041  0.22783745    -0.12100
C1380       C  0.11071301  0.20613979  0.22442478     0.23200
C1381       C  0.09407553  0.19718255  0.23672684    -0.12700
C1382       C  0.09872712  0.18188968  0.25264266     0.04700
C1383       C  0.10644950  0.22199759  0.20729961     0.27100
C1384       C  0.10739081  0.24392337  0.21196104    -0.13400
C1385       C  0.11000849  0.25882531  0.19530845     0.05200
C1386       C  0.11216617  0.25182081  0.17384783    -0.09300
C1387       C  0.10876021  0.22995031  0.16913994     0.06000
C1388       C  0.10567580  0.21518100  0.18587830    -0.13700
Br1389     Br  0.06505958  0.20607029  0.23177902    -0.05800
Br1390     Br  0.16564384  0.17409979  0.24618101    -0.00200
Br1391     Br  0.11106702  0.28881693  0.20226710     0.00300
Br1392     Br  0.10214797  0.18516160  0.17983232    -0.04100
Br1393     Br  0.07593551  0.16995222  0.26967222     0.00400
Br1394     Br  0.15480672  0.21183946  0.21093682    -0.03400
Br1395     Br  0.10658201  0.25330623  0.24135936    -0.04300
Br1396     Br  0.11058343  0.21934947  0.14027402    -0.00300
C1397       C  0.30684399  0.15589890  0.36547484     0.01100
C1398       C  0.30024213  0.14644238  0.38494040     0.03900
C1399       C  0.27924306  0.13843235  0.38709862    -0.12100
C1400       C  0.26486453  0.13979128  0.36985270     0.23200
C1401       C  0.27162095  0.14855280  0.35025845    -0.12700
C1402       C  0.29217487  0.15729182  0.34826674     0.04700
C1403       C  0.24178125  0.13509391  0.37253697     0.27100
C1404       C  0.23331034  0.11538587  0.36566677    -0.13400
C1405       C  0.21141012  0.11368247  0.36070661     0.05200
C1406       C  0.19819327  0.13173712  0.36238924    -0.09300
C1407       C  0.20617403  0.15059888  0.37172587     0.06000
C1408       C  0.22792931  0.15222362  0.37697552    -0.13700
Br1409     Br  0.25222743  0.14909563  0.32614863    -0.05800
Br1410     Br  0.31889920  0.14688403  0.40950425    -0.00200
Br1411     Br  0.19973798  0.08732120  0.34990428     0.00300
Br1412     Br  0.23938353  0.17886455  0.38755975    -0.04100
Br1413     Br  0.29918676  0.17225673  0.32209744     0.00400
Br1414     Br  0.26981522  0.12616363  0.41374374    -0.03400
Br1415     Br  0.25217809  0.09165757  0.36079127    -0.04300
Br1416     Br  0.18780094  0.17503431  0.37504498    -0.00300
C1417       C  0.36624978  0.14284573  0.18965093     0.01100
C1418       C  0.37414026  0.12401129  0.19930706     0.03900
C1419       C  0.38061853  0.12426198  0.22097600    -0.12100
C1420       C  0.37872904  0.14306737  0.23319333     0.23200
C1421       C  0.37293748  0.16224343  0.22304032    -0.12700
C1422       C  0.36722705  0.16223979  0.20127231     0.04700
C1423       C  0.37948992  0.14230339  0.25702300     0.27100
C1424       C  0.36057313  0.13772177  0.26839921    -0.13400
C1425       C  0.35983360  0.14063883  0.29068371     0.05200
C1426       C  0.37764471  0.14889493  0.30167667    -0.09300
C1427       C  0.39730932  0.15070463  0.29081942     0.06000
C1428       C  0.39816803  0.14782735  0.26840644    -0.13700
Br1429     Br  0.37123548  0.18828710  0.23949558    -0.05800
Br1430     Br  0.37440066  0.09741715  0.18380360    -0.00200
Br1431     Br  0.33466776  0.13269041  0.30646989     0.00300
Br1432     Br  0.42440172  0.15286813  0.25309773    -0.04100
Br1433     Br  0.36050700  0.18900874  0.18749931     0.00400
Br1434     Br  0.39094897  0.09865913  0.23450643    -0.03400
Br1435     Br  0.33511286  0.12914058  0.25320721    -0.04300
Br1436     Br  0.42285520  0.15713918  0.30665559    -0.00300
C1437       C  0.37896447  0.44610815  0.16360283     0.01100
C1438       C  0.39494484  0.46019651  0.17127136     0.03900
C1439       C  0.39232982  0.48240284  0.16929320    -0.12100
C1440       C  0.37434423  0.49071955  0.15868880     0.23200
C1441       C  0.35925657  0.47677795  0.14954892    -0.12700
C1442       C  0.36113240  0.45458967  0.15253532     0.04700
C1443       C  0.37045090  0.51408336  0.15883494     0.27100
C1444       C  0.35629158  0.52276818  0.17403026    -0.13400
C1445       C  0.35421756  0.54500479  0.17596483     0.05200
C1446       C  0.36668172  0.55871679  0.16307754    -0.09300
C1447       C  0.38017860  0.55001867  0.14722494     0.06000
C1448       C  0.38185030  0.52770923  0.14495966    -0.13700
Br1449     Br  0.33579600  0.48833470  0.13324190    -0.05800
Br1450     Br  0.42092733  0.44940098  0.18392062    -0.00200
Br1451     Br  0.33442468  0.55670271  0.19655965     0.00300
Br1452     Br  0.40054835  0.51566772  0.12361664    -0.04100
Br1453     Br  0.33809805  0.43641768  0.14291490     0.00400
Br1454     Br  0.41312927  0.50158439  0.18168934    -0.03400
Br1455     Br  0.34063906  0.50415873  0.19309289    -0.04300
Br1456     Br  0.39795955  0.56845311  0.12999455    -0.00300
C1457       C  0.35036147  0.20149821  0.11489442     0.01100
C1458       C  0.33523428  0.21823494  0.11313175     0.03900
C1459       C  0.34175761  0.23956301  0.11546615    -0.12100
C1460       C  0.36356258  0.24447265  0.11769563     0.23200
C1461       C  0.37891445  0.22828223  0.11543748    -0.12700
C1462       C  0.37243271  0.20674116  0.11409183     0.04700
C1463       C  0.36996378  0.26602456  0.12512583     0.27100
C1464       C  0.37115740  0.28335173  0.11081465    -0.13400
C1465       C  0.37379046  0.30427818  0.11873427     0.05200
C1466       C  0.37510351  0.30775288  0.14102908    -0.09300
C1467       C  0.37685189  0.29006446  0.15487407     0.06000
C1468       C  0.37357311  0.26934584  0.14709035    -0.13700
Br1469     Br  0.40882658  0.23582475  0.11586456    -0.05800
Br1470     Br  0.30544962  0.21231371  0.10729592    -0.00200
Br1471     Br  0.37508865  0.32787061  0.09901099     0.00300
Br1472     Br  0.37253287  0.24567571  0.16685369    -0.04100
Br1473     Br  0.39418763  0.18507630  0.11204644     0.00400
Br1474     Br  0.32064156  0.26190447  0.11763778    -0.03400
Br1475     Br  0.36808203  0.27831714  0.08056076    -0.04300
Br1476     Br  0.38478311  0.29403655  0.18441258    -0.00300
C1477       C  0.30724446  0.37648302  0.14071817     0.01100
C1478       C  0.30147779  0.36421427  0.12263780     0.03900
C1479       C  0.27999316  0.36337193  0.11587355    -0.12100
C1480       C  0.26411315  0.37427855  0.12745404     0.23200
C1481       C  0.27016613  0.38854200  0.14373691    -0.12700
C1482       C  0.29156718  0.38934391  0.15061788     0.04700
C1483       C  0.24187671  0.36580416  0.12720609     0.27100
C1484       C  0.22652932  0.37274884  0.11231067    -0.13400
C1485       C  0.20605886  0.36309358  0.11172007     0.05200
C1486       C  0.20077539  0.34654757  0.12631058    -0.09300
C1487       C  0.21628463  0.34016830  0.14167876     0.06000
C1488       C  0.23656032  0.34975895  0.14202512    -0.13700
Br1489     Br  0.24849986  0.40492024  0.15825951    -0.05800
Br1490     Br  0.32198331  0.34572801  0.10924615    -0.00200
Br1491     Br  0.18603759  0.37192931  0.09004649     0.00300
Br1492     Br  0.25739412  0.34085224  0.16313654    -0.04100
Br1493     Br  0.29877679  0.40646198  0.17506637     0.00400
Br1494     Br  0.27170705  0.34544823  0.09217441    -0.03400
Br1495     Br  0.23372366  0.39555602  0.09288427    -0.04300
Br1496     Br  0.21037166  0.31870154  0.16329363    -0.00300
C1497       C  0.39903268  0.24847409  0.31890186     0.01100
C1498       C  0.40641530  0.24227723  0.29839742     0.03900
C1499       C  0.41045354  0.25781520  0.28258535    -0.12100
C1500       C  0.40613629  0.27943487  0.28680595     0.23200
C1501       C  0.40057900  0.28582938  0.30763994    -0.12700
C1502       C  0.39705141  0.27044885  0.32364134     0.04700
C1503       C  0.40209003  0.29441944  0.26886944     0.27100
C1504       C  0.41671541  0.31069944  0.26364663    -0.13400
C1505       C  0.41094489  0.32691392  0.24906127     0.05200
C1506       C  0.39060955  0.32643311  0.23899396    -0.09300
C1507       C  0.37592373  0.30999470  0.24467432     0.06000
C1508       C  0.38187522  0.29393714  0.25909942    -0.13700
Br1509     Br  0.39546608  0.31566665  0.31354384    -0.05800
Br1510     Br  0.40950888  0.21253890  0.29115229    -0.00200
Br1511     Br  0.43091139  0.34989779  0.24401986     0.00300
Br1512     Br  0.36182569  0.27139411  0.26617714    -0.04100
Br1513     Br  0.38624969  0.27976303  0.35090402     0.00400
Br1514     Br  0.42010229  0.24957512  0.25445829    -0.03400
Br1515     Br  0.44460283  0.31062930  0.27676946    -0.04300
Br1516     Br  0.34644996  0.31017824  0.23505431    -0.00300
C1517       C  0.16437502  0.55515136  0.37932456     0.01100
C1518       C  0.15016538  0.54667310  0.36386331     0.03900
C1519       C  0.14758641  0.52437251  0.36182435    -0.12100
C1520       C  0.15927023  0.51042683  0.37502630     0.23200
C1521       C  0.17269966  0.51882871  0.39103467    -0.12700
C1522       C  0.17506011  0.54105329  0.39336171     0.04700
C1523       C  0.15932157  0.48702574  0.37090948     0.27100
C1524       C  0.14748782  0.47297534  0.38402108    -0.13400
C1525       C  0.15071837  0.45075455  0.38250917     0.05200
C1526       C  0.16582769  0.44258476  0.36790329    -0.09300
C1527       C  0.17658524  0.45656178  0.35388064     0.06000
C1528       C  0.17325264  0.47869964  0.35529444    -0.13700
Br1529     Br  0.18870080  0.49970454  0.40918157    -0.05800
Br1530     Br  0.13530670  0.56526609  0.34431582    -0.00200
Br1531     Br  0.13585976  0.43168888  0.40172714     0.00300
Br1532     Br  0.18866311  0.49778981  0.33656830    -0.04100
Br1533     Br  0.19264028  0.55200619  0.41628280     0.00400
Br1534     Br  0.12883397  0.51270032  0.34028491    -0.03400
Br1535     Br  0.12778393  0.48431674  0.40481556    -0.04300
Br1536     Br  0.19635704  0.44533812  0.33304844    -0.00300
C1537       C  0.13483134  0.34913928  0.19001485     0.01100
C1538       C  0.11519502  0.34925596  0.20114941     0.03900
C1539       C  0.11472043  0.35476870  0.22305574    -0.12100
C1540       C  0.13379310  0.36033537  0.23370674     0.23200
C1541       C  0.15287565  0.36243987  0.22192637    -0.12700
C1542       C  0.15328082  0.35722011  0.20008782     0.04700
C1543       C  0.13488408  0.36084513  0.25747599     0.27100
C1544       C  0.13383863  0.38026704  0.26886650    -0.13400
C1545       C  0.13958884  0.38091730  0.29071167     0.05200
C1546       C  0.14716235  0.36232036  0.30083386    -0.09300
C1547       C  0.14623494  0.34262699  0.28995257     0.06000
C1548       C  0.13997243  0.34186863  0.26840074    -0.13700
Br1549     Br  0.17891918  0.37087895  0.23611996    -0.05800
Br1550     Br  0.08923097  0.34082498  0.18679757    -0.00200
Br1551     Br  0.13817774  0.40731191  0.30646325     0.00300
Br1552     Br  0.13995135  0.31498896  0.25328812    -0.04100
Br1553     Br  0.17904122  0.36163656  0.18377940     0.00400
Br1554     Br  0.08836138  0.35339875  0.23890463    -0.03400
Br1555     Br  0.12603950  0.40607080  0.25410827    -0.04300
Br1556     Br  0.15424472  0.31666433  0.30449944    -0.00300
C1557       C  0.15957506  0.30247986  0.37307782     0.01100
C1558       C  0.13752925  0.29775966  0.37503096     0.03900
C1559       C  0.13067584  0.27640907  0.37657943    -0.12100
C1560       C  0.14551587  0.25973932  0.37456081     0.23200
C1561       C  0.16752414  0.26430413  0.37394000    -0.12700
C1562       C  0.17459094  0.28560819  0.37398432     0.04700
C1563       C  0.13796010  0.23815914  0.36856858     0.27100
C1564       C  0.13678086  0.22150838  0.38367429    -0.13400
C1565       C  0.13251817  0.20047707  0.37681394     0.05200
C1566       C  0.12990285  0.19623157  0.35478578    -0.09300
C1567       C  0.12822880  0.21339971  0.34028549     0.06000
C1568       C  0.13286882  0.23420529  0.34700567    -0.13700
Br1569     Br  0.18788623  0.24135269  0.37095798    -0.05800
Br1570     Br  0.11625593  0.31986006  0.37261439    -0.00200
Br1571     Br  0.13125263  0.17764249  0.39744991     0.00300
Br1572     Br  0.13412134  0.25702419  0.32621050    -0.04100
Br1573     Br  0.20495281  0.29130809  0.37496617     0.00400
Br1574     Br  0.10073602  0.26961905  0.37947151    -0.03400
Br1575     Br  0.14243186  0.22741486  0.41338387    -0.04300
Br1576     Br  0.11972217  0.20839205  0.31101482    -0.00300
C1577       C  0.25555078  0.33496917  0.38214301     0.01100
C1578       C  0.27150531  0.33069572  0.36686961     0.03900
C1579       C  0.28704160  0.31511741  0.37092101    -0.12100
C1580       C  0.28686365  0.30386032  0.39042824     0.23200
C1581       C  0.27205391  0.30945158  0.40650023    -0.12700
C1582       C  0.25619611  0.32486698  0.40225184     0.04700
C1583       C  0.30096410  0.28493638  0.39266275     0.27100
C1584       C  0.29361332  0.26493645  0.38550031    -0.13400
C1585       C  0.30816711  0.24820968  0.38198904     0.05200
C1586       C  0.33031624  0.25141867  0.38553096    -0.09300
C1587       C  0.33712999  0.27065951  0.39539315     0.06000
C1588       C  0.32248003  0.28743330  0.39864173    -0.13700
Br1589     Br  0.27323212  0.29556311  0.43393818    -0.05800
Br1590     Br  0.27151476  0.34576780  0.33997023    -0.00200
Br1591     Br  0.29731488  0.22079145  0.37285752     0.00300
Br1592     Br  0.33190757  0.31444096  0.41009131    -0.04100
Br1593     Br  0.23455551  0.33119980  0.42324695     0.00400
Br1594     Br  0.30797361  0.30838045  0.34924655    -0.03400
Br1595     Br  0.26360170  0.26093364  0.37942109    -0.04300
Br1596     Br  0.36648868  0.27494150  0.40372366    -0.00300
C1597       C  0.24485153  0.39799145  0.31520095     0.01100
C1598       C  0.24173688  0.39271618  0.29337397     0.03900
C1599       C  0.25848661  0.39520907  0.27855659    -0.12100
C1600       C  0.27804939  0.40421233  0.28504774     0.23200
C1601       C  0.28022042  0.41216773  0.30600757    -0.12700
C1602       C  0.26390396  0.40871216  0.32122890     0.04700
C1603       C  0.29709681  0.40231050  0.27091099     0.27100
C1604       C  0.31140318  0.38529390  0.27421931    -0.13400
C1605       C  0.32816649  0.38174573  0.25975264     0.05200
C1606       C  0.33042221  0.39472270  0.24150161    -0.09300
C1607       C  0.31758134  0.41303902  0.23934468     0.06000
C1608       C  0.30057565  0.41656680  0.25376691    -0.13700
Br1609     Br  0.30636223  0.42644826  0.31405829    -0.05800
Br1610     Br  0.21457025  0.38181268  0.28350216    -0.00200
Br1611     Br  0.34886334  0.35977956  0.26558681     0.00300
Br1612     Br  0.28139216  0.44016736  0.24947399    -0.04100
Br1613     Br  0.26909845  0.41682106  0.35056352     0.00400
Br1614     Br  0.25526945  0.38466013  0.24970085    -0.03400
Br1615     Br  0.30738338  0.36597520  0.29792140    -0.04300
Br1616     Br  0.32355124  0.43337535  0.21702526    -0.00300
C1617       C  0.55077556  0.62040492  0.17764846     0.01100
C1618       C  0.54112287  0.61606008  0.15761631     0.03900
C1619       C  0.51870602  0.61710907  0.15529828    -0.12100
C1620       C  0.50574467  0.62289733  0.17277275     0.23200
C1621       C  0.51526224  0.62737428  0.19266680    -0.12700
C1622       C  0.53752061  0.62537435  0.19535009     0.04700
C1623       C  0.48197972  0.62248396  0.17092622     0.27100
C1624       C  0.47060379  0.64080512  0.16451102    -0.13400
C1625       C  0.44801670  0.64068042  0.16446431     0.05200
C1626       C  0.43673878  0.62230259  0.17118041    -0.09300
C1627       C  0.44820447  0.60370295  0.17661883     0.06000
C1628       C  0.47069431  0.60383943  0.17661538    -0.13700
Br1629     Br  0.49755653  0.63634448  0.21630681    -0.05800
Br1630     Br  0.55822337  0.60654978  0.13373910    -0.00200
Br1631     Br  0.43261355  0.66594266  0.15608543     0.00300
Br1632     Br  0.48619016  0.57863421  0.18509973    -0.04100
Br1633     Br  0.54925362  0.62884277  0.22367455     0.00400
Br1634     Br  0.50550852  0.61004263  0.12833440    -0.03400
Br1635     Br  0.48611340  0.66628145  0.15672210    -0.04300
Br1636     Br  0.43303818  0.57772211  0.18355294    -0.00300
C1637       C  0.74943475  0.61385564  0.32902280     0.01100
C1638       C  0.74617365  0.59271862  0.32204070     0.03900
C1639       C  0.73139620  0.58846548  0.30553793    -0.12100
C1640       C  0.71978619  0.60532754  0.29618879     0.23200
C1641       C  0.72244623  0.62630650  0.30384177    -0.12700
C1642       C  0.73708723  0.63052503  0.32031456     0.04700
C1643       C  0.70496551  0.60141873  0.27805723     0.27100
C1644       C  0.71186344  0.60508613  0.25696885    -0.13400
C1645       C  0.69697172  0.60512692  0.24011748     0.05200
C1646       C  0.67485685  0.60245605  0.24438119    -0.09300
C1647       C  0.66870756  0.59523216  0.26503501     0.06000
C1648       C  0.68360427  0.59557352  0.28193848    -0.13700
Br1649     Br  0.70643738  0.64941938  0.29123706    -0.05800
Br1650     Br  0.76253630  0.56984869  0.33448475    -0.00200
Br1651     Br  0.70735535  0.60757301  0.21116312     0.00300
Br1652     Br  0.67448974  0.58969805  0.31083801    -0.04100
Br1653     Br  0.73998367  0.65923287  0.33125225     0.00400
Br1654     Br  0.72755460  0.55976945  0.29511791    -0.03400
Br1655     Br  0.74157549  0.61151607  0.25147840    -0.04300
Br1656     Br  0.64040890  0.58424333  0.27077325    -0.00300
C1657       C  0.43965080  0.82338328  0.37277301     0.01100
C1658       C  0.45231741  0.80586862  0.36600746     0.03900
C1659       C  0.47476531  0.80724319  0.36635953    -0.12100
C1660       C  0.48487347  0.82637423  0.37244041     0.23200
C1661       C  0.47246124  0.84443452  0.37728355    -0.12700
C1662       C  0.44993761  0.84306060  0.37740260     0.04700
C1663       C  0.50857882  0.82724114  0.37413474     0.27100
C1664       C  0.51848790  0.82409856  0.39412104    -0.13400
C1665       C  0.54091087  0.82370866  0.39562370     0.05200
C1666       C  0.55356105  0.82531709  0.37700773    -0.09300
C1667       C  0.54364852  0.82838020  0.35699661     0.06000
C1668       C  0.52123552  0.83002747  0.35567867    -0.13700
Br1669     Br  0.48662247  0.87092251  0.38429689    -0.05800
Br1670     Br  0.43929567  0.78023117  0.35472166    -0.00200
Br1671     Br  0.55436068  0.82099873  0.42326786     0.00300
Br1672     Br  0.50769815  0.83554612  0.32855258    -0.04100
Br1673     Br  0.43374720  0.86827150  0.38444087     0.00400
Br1674     Br  0.49186076  0.78264005  0.35908651    -0.03400
Br1675     Br  0.50128599  0.81933162  0.41930265    -0.04300
Br1676     Br  0.56050046  0.82811916  0.33118650    -0.00300
C1677       C  0.60581384  0.75044450  0.32641039     0.01100
C1678       C  0.61286962  0.75194910  0.30491965     0.03900
C1679       C  0.61046774  0.73457584  0.29091094    -0.12100
C1680       C  0.59909338  0.71630931  0.29744273     0.23200
C1681       C  0.58926494  0.71595688  0.31769135    -0.12700
C1682       C  0.59307849  0.73263027  0.33244413     0.04700
C1683       C  0.59927496  0.69700325  0.28358330     0.27100
C1684       C  0.58636966  0.69593991  0.26512930    -0.13400
C1685       C  0.59006136  0.68001582  0.24961975     0.05200
C1686       C  0.60652407  0.66499510  0.25269376    -0.09300
C1687       C  0.61833347  0.66518503  0.27187880     0.06000
C1688       C  0.61462730  0.68102801  0.28734441    -0.13700
Br1689     Br  0.57107513  0.69219081  0.32515341    -0.05800
Br1690     Br  0.62478811  0.77817252  0.29388416    -0.00200
Br1691     Br  0.57404299  0.68016868  0.22331182     0.00300
Br1692     Br  0.63154857  0.68160764  0.31314967    -0.04100
Br1693     Br  0.58175353  0.72987008  0.36102774     0.00400
Br1694     Br  0.62387170  0.73533432  0.26304676    -0.03400
Br1695     Br  0.56455373  0.71713749  0.26065475    -0.04300
Br1696     Br  0.64045330  0.64432558  0.27649821    -0.00300
C1697       C  0.67123902  0.75031680  0.39310823     0.01100
C1698       C  0.68865198  0.75534596  0.40650841     0.03900
C1699       C  0.70353226  0.73952230  0.41196614    -0.12100
C1700       C  0.70221902  0.71923836  0.40239705     0.23200
C1701       C  0.68451860  0.71393535  0.38951220    -0.12700
C1702       C  0.66882029  0.72934762  0.38520699     0.04700
C1703       C  0.72133481  0.70539767  0.40205266     0.27100
C1704       C  0.73844630  0.71102910  0.38860320    -0.13400
C1705       C  0.75600758  0.69741729  0.38652980     0.05200
C1706       C  0.75554220  0.67678632  0.39594283    -0.09300
C1707       C  0.73896779  0.67182390  0.41072283     0.06000
C1708       C  0.72217641  0.68643560  0.41404619    -0.13700
Br1709     Br  0.68285100  0.68619214  0.37611240    -0.05800
Br1710     Br  0.69340987  0.78422452  0.41581816    -0.00200
Br1711     Br  0.78074827  0.70798944  0.37111575     0.00300
Br1712     Br  0.69971584  0.68031635  0.43433254    -0.04100
Br1713     Br  0.64551002  0.72237807  0.36621121     0.00400
Br1714     Br  0.72685897  0.74594288  0.43112539    -0.03400
Br1715     Br  0.73721504  0.73688293  0.37167605    -0.04300
Br1716     Br  0.73800465  0.64502180  0.42598052    -0.00300
C1717       C  0.63443522  0.80545785  0.14069008     0.01100
C1718       C  0.63008548  0.79549000  0.16045473     0.03900
C1719       C  0.62502139  0.77364985  0.16117563    -0.12100
C1720       C  0.62543422  0.76139145  0.14225881     0.23200
C1721       C  0.62848218  0.77159920  0.12236894    -0.12700
C1722       C  0.63228462  0.79379283  0.12156590     0.04700
C1723       C  0.62618018  0.73773406  0.14406158     0.27100
C1724       C  0.64509358  0.72825908  0.15158471    -0.13400
C1725       C  0.64510379  0.70678243  0.15789300     0.05200
C1726       C  0.62663156  0.69398119  0.15501686    -0.09300
C1727       C  0.60828907  0.70297555  0.14549900     0.06000
C1728       C  0.60787326  0.72501082  0.14062178    -0.13700
Br1729     Br  0.62971996  0.75486147  0.09656579    -0.05800
Br1730     Br  0.63264149  0.81143275  0.18678701    -0.00200
Br1731     Br  0.67042332  0.69554610  0.17160640     0.00300
Br1732     Br  0.58197673  0.73813529  0.13050169    -0.04100
Br1733     Br  0.63613534  0.80799049  0.09449208     0.00400
Br1734     Br  0.61952610  0.76001386  0.18837001    -0.03400
Br1735     Br  0.67089442  0.74514421  0.15414397    -0.04300
Br1736     Br  0.58323408  0.68565947  0.14076825    -0.00300
C1737       C  0.62750998  0.84782404  0.30623710     0.01100
C1738       C  0.61249029  0.86424246  0.30190692     0.03900
C1739       C  0.61076714  0.87294349  0.28107208    -0.12100
C1740       C  0.62353287  0.86505471  0.26432938     0.23200
C1741       C  0.63837816  0.84875302  0.26848103    -0.12700
C1742       C  0.64103834  0.84083409  0.28932400     0.04700
C1743       C  0.62343785  0.87486278  0.24262009     0.27100
C1744       C  0.60955704  0.86714399  0.22659517    -0.13400
C1745       C  0.61462241  0.87029747  0.20480797     0.05200
C1746       C  0.63417680  0.87996989  0.19914423    -0.09300
C1747       C  0.64682050  0.88956683  0.21521972     0.06000
C1748       C  0.64082930  0.88791119  0.23681149    -0.13700
Br1749     Br  0.65552139  0.83740230  0.24530294    -0.05800
Br1750     Br  0.59408114  0.87519557  0.32404830    -0.00200
Br1751     Br  0.59635037  0.85886605  0.18277076     0.00300
Br1752     Br  0.65816193  0.90088077  0.25883016    -0.04100
Br1753     Br  0.66507917  0.82203465  0.29433482     0.00400
Br1754     Br  0.59114215  0.89588561  0.27526014    -0.03400
Br1755     Br  0.58506557  0.85022298  0.23447146    -0.04300
Br1756     Br  0.67409042  0.90210161  0.20824221    -0.00300
C1757       C  0.04849333  0.67754628  0.12692294     0.01100
C1758       C  0.03807808  0.65928859  0.11861013     0.03900
C1759       C  0.01551874  0.65854151  0.11750614    -0.12100
C1760       C  0.00322347  0.67600880  0.12461835     0.23200
C1761       C  0.01357172  0.69386510  0.13359565    -0.12700
C1762       C  0.03597242  0.69431660  0.13536586     0.04700
C1763       C  0.97938743  0.67542674  0.12367560     0.27100
C1764       C  0.96855363  0.67988488  0.10441205    -0.13400
C1765       C  0.94602157  0.68055607  0.10397934     0.05200
C1766       C  0.93415661  0.67772391  0.12301389    -0.09300
C1767       C  0.94506687  0.67319453  0.14227574     0.06000
C1768       C  0.96752000  0.67157323  0.14246436    -0.13700
Br1769     Br  0.99697726  0.71804300  0.14310866    -0.05800
Br1770     Br  0.05447442  0.63532401  0.10852214    -0.00200
Br1771     Br  0.93143651  0.68429463  0.07704573     0.00300
Br1772     Br  0.98222650  0.66428360  0.16858907    -0.04100
Br1773     Br  0.04920779  0.71719994  0.15116803     0.00400
Br1774     Br  0.00132340  0.63372439  0.10598944    -0.03400
Br1775     Br  0.98464198  0.68552434  0.07868817    -0.04300
Br1776     Br  0.92954248  0.67057337  0.16883735    -0.00300
C1777       C  0.80774054  0.74139039  0.11888725     0.01100
C1778       C  0.80659010  0.75208927  0.09895587     0.03900
C1779       C  0.79117097  0.76812444  0.09570126    -0.12100
C1780       C  0.77685997  0.77340171  0.11219385     0.23200
C1781       C  0.77694982  0.76188873  0.13144967    -0.12700
C1782       C  0.79223952  0.74596645  0.13491126     0.04700
C1783       C  0.76270516  0.79215472  0.11052786     0.27100
C1784       C  0.76981825  0.81183585  0.11884898    -0.13400
C1785       C  0.75519092  0.82843880  0.12222419     0.05200
C1786       C  0.73338246  0.82513361  0.11783038    -0.09300
C1787       C  0.72640848  0.80583011  0.10864064     0.06000
C1788       C  0.74115087  0.78942779  0.10466509    -0.13700
Br1789     Br  0.75644222  0.76880331  0.15359802    -0.05800
Br1790     Br  0.82536135  0.74443927  0.07569093    -0.00200
Br1791     Br  0.76470235  0.85502800  0.13462726     0.00300
Br1792     Br  0.73164537  0.76256248  0.09297226    -0.04100
Br1793     Br  0.79213593  0.73201049  0.16261076     0.00400
Br1794     Br  0.78955708  0.78313408  0.06882803    -0.03400
Br1795     Br  0.79917243  0.81514482  0.12778420    -0.04300
Br1796     Br  0.69646332  0.80146413  0.10283594    -0.00300
C1797       C  0.79827894  0.64359922  0.13609911     0.01100
C1798       C  0.78757543  0.64107422  0.11629092     0.03900
C1799       C  0.76583565  0.63482811  0.11578306    -0.12100
C1800       C  0.75432148  0.63212268  0.13498742     0.23200
C1801       C  0.76512319  0.63395275  0.15466604    -0.12700
C1802       C  0.78703110  0.63897176  0.15523132     0.04700
C1803       C  0.73062837  0.62903982  0.13490113     0.27100
C1804       C  0.71705189  0.64658063  0.13106578    -0.13400
C1805       C  0.69491946  0.64451383  0.13432948     0.05200
C1806       C  0.68658027  0.62614191  0.14422944    -0.09300
C1807       C  0.69968430  0.60803635  0.14648440     0.06000
C1808       C  0.72154112  0.60926475  0.14094809    -0.13700
Br1809     Br  0.74953653  0.63124427  0.18113985    -0.05800
Br1810     Br  0.80160375  0.64832215  0.08985121    -0.00200
Br1811     Br  0.67568585  0.66639959  0.12462295     0.00300
Br1812     Br  0.73937734  0.58433592  0.14281358    -0.04100
Br1813     Br  0.80137036  0.63979462  0.18265122     0.00400
Br1814     Br  0.75137936  0.63084807  0.08881993    -0.03400
Br1815     Br  0.72874105  0.67414396  0.12372777    -0.04300
Br1816     Br  0.68806951  0.58215491  0.15844458    -0.00300
C1817       C  0.87059672  0.65015973  0.19932406     0.01100
C1818       C  0.87786065  0.66306405  0.21649899     0.03900
C1819       C  0.87666541  0.65554087  0.23767945    -0.12100
C1820       C  0.86992952  0.63447158  0.24180022     0.23200
C1821       C  0.86627568  0.62047870  0.22453954    -0.12700
C1822       C  0.86585024  0.62836041  0.20338861     0.04700
C1823       C  0.86293644  0.62834840  0.26375932     0.27100
C1824       C  0.87774190  0.62474158  0.28041283    -0.13400
C1825       C  0.87052071  0.62282915  0.30178410     0.05200
C1826       C  0.84837761  0.62326899  0.30622746    -0.09300
C1827       C  0.83381434  0.62307052  0.28903051     0.06000
C1828       C  0.84088463  0.62710410  0.26816829    -0.13700
Br1829     Br  0.86003703  0.59083215  0.23037077    -0.05800
Br1830     Br  0.88945190  0.69125295  0.21132731    -0.00200
Br1831     Br  0.89097776  0.62040860  0.32467444     0.00300
Br1832     Br  0.82002477  0.63277050  0.24611092    -0.04100
Br1833     Br  0.85650413  0.60942011  0.18088421     0.00400
Br1834     Br  0.88237228  0.67482770  0.26111638    -0.03400
Br1835     Br  0.90779470  0.62313407  0.27390673    -0.04300
Br1836     Br  0.80414684  0.61614753  0.29383300    -0.00300
C1837       C  0.93871096  0.87289181  0.32627443     0.01100
C1838       C  0.94838533  0.87706348  0.34634022     0.03900
C1839       C  0.97087563  0.87804087  0.34818238    -0.12100
C1840       C  0.98400095  0.87416208  0.33026502     0.23200
C1841       C  0.97446868  0.86898400  0.31051223    -0.12700
C1842       C  0.95202597  0.86846046  0.30844691     0.04700
C1843       C  0.00776785  0.87659846  0.33175648     0.27100
C1844       C  0.01766362  0.89517413  0.32382192    -0.13400
C1845       C  0.04014079  0.89693886  0.32349770     0.05200
C1846       C  0.05320555  0.88012627  0.33111090    -0.09300
C1847       C  0.04302529  0.86258653  0.34134059     0.06000
C1848       C  0.02049706  0.86054204  0.34100384    -0.13700
Br1849     Br  0.99236693  0.86300942  0.28604891    -0.05800
Br1850     Br  0.93114427  0.88264581  0.37133010    -0.00200
Br1851     Br  0.05263447  0.92351978  0.31458182     0.00300
Br1852     Br  0.00692693  0.83543665  0.35276025    -0.04100
Br1853     Br  0.93987345  0.86096966  0.28103910     0.00400
Br1854     Br  0.98383688  0.88580267  0.37507836    -0.03400
Br1855     Br  0.00016266  0.91833415  0.31344556    -0.04300
Br1856     Br  0.05931462  0.84149242  0.35660907    -0.00300
C1857       C  0.88439785  0.82878928  0.25208209     0.01100
C1858       C  0.89492689  0.83568535  0.23322777     0.03900
C1859       C  0.89911537  0.82096447  0.21665745    -0.12100
C1860       C  0.89304274  0.79944795  0.21899516     0.23200
C1861       C  0.88516730  0.79212652  0.23870461    -0.12700
C1862       C  0.88073464  0.80668811  0.25512619     0.04700
C1863       C  0.89029017  0.78542673  0.20011600     0.27100
C1864       C  0.87008274  0.78479901  0.19029419    -0.13400
C1865       C  0.86508446  0.76842288  0.17585083     0.05200
C1866       C  0.87990332  0.75196064  0.17180737    -0.09300
C1867       C  0.90077390  0.75355243  0.18031651     0.06000
C1868       C  0.90600114  0.77045863  0.19431901    -0.13700
Br1869     Br  0.87890139  0.76210137  0.24247894    -0.05800
Br1870     Br  0.90220260  0.86533086  0.22906034    -0.00200
Br1871     Br  0.83807606  0.76919111  0.16111514     0.00300
Br1872     Br  0.93424198  0.77278986  0.20635192    -0.04100
Br1873     Br  0.86956228  0.79576546  0.28161917     0.00400
Br1874     Br  0.91208726  0.83021384  0.19027245    -0.03400
Br1875     Br  0.84864054  0.80565510  0.19789556    -0.04300
Br1876     Br  0.92179661  0.73203364  0.17399948    -0.00300
C1877       C  0.81710593  0.89739332  0.25828508     0.01100
C1878       C  0.79567317  0.90085300  0.26474763     0.03900
C1879       C  0.77954653  0.90310703  0.24930868    -0.12100
C1880       C  0.78476359  0.90222505  0.22747769     0.23200
C1881       C  0.80624442  0.90163640  0.22099928    -0.12700
C1882       C  0.82251818  0.89966475  0.23635801     0.04700
C1883       C  0.76778046  0.89801049  0.21165842     0.27100
C1884       C  0.76191471  0.87670194  0.20765096    -0.13400
C1885       C  0.74563810  0.87212351  0.19301909     0.05200
C1886       C  0.73518310  0.88890275  0.18214559    -0.09300
C1887       C  0.74155291  0.91024182  0.18563733     0.06000
C1888       C  0.75773429  0.91478735  0.20062309    -0.13700
Br1889     Br  0.81298952  0.90110334  0.19084223    -0.05800
Br1890     Br  0.78799303  0.90210046  0.29467929    -0.00200
Br1891     Br  0.73852700  0.84254507  0.18736580     0.00300
Br1892     Br  0.76611536  0.94384472  0.20635889    -0.04100
Br1893     Br  0.85172974  0.89851486  0.22651749     0.00400
Br1894     Br  0.74997525  0.90531760  0.25784867    -0.03400
Br1895     Br  0.77639262  0.85366052  0.22221307    -0.04300
Br1896     Br  0.72783301  0.93322843  0.17050307    -0.00300
C1897       C  0.69138195  0.85191943  0.37377049     0.01100
C1898       C  0.70315220  0.85169737  0.39301199     0.03900
C1899       C  0.72481459  0.85810653  0.39302715    -0.12100
C1900       C  0.73472601  0.86460415  0.37381482     0.23200
C1901       C  0.72222682  0.86719097  0.35525002    -0.12700
C1902       C  0.70054702  0.86119173  0.35536062     0.04700
C1903       C  0.75847171  0.86547390  0.37200995     0.27100
C1904       C  0.76963652  0.88506595  0.37152363    -0.13400
C1905       C  0.79130044  0.88565952  0.36503515     0.05200
C1906       C  0.80176479  0.86661434  0.35911846    -0.09300
C1907       C  0.79154409  0.84697988  0.36340343     0.06000
C1908       C  0.76982077  0.84633815  0.36901479    -0.13700
Br1909     Br  0.73517126  0.87753082  0.32918672    -0.05800
Br1910     Br  0.69004302  0.84161180  0.41900408    -0.00200
Br1911     Br  0.80643456  0.91234830  0.36455263     0.00300
Br1912     Br  0.75535373  0.81915613  0.37144209    -0.04100
Br1913     Br  0.68317847  0.86596561  0.33035309     0.00400
Br1914     Br  0.74140594  0.85684409  0.41894170    -0.03400
Br1915     Br  0.75500544  0.91092275  0.37930609    -0.04300
Br1916     Br  0.80784410  0.82103414  0.36343055    -0.00300
C1917       C  0.86285573  0.80043797  0.34393624     0.01100
C1918       C  0.84709700  0.78527104  0.33750950     0.03900
C1919       C  0.84808901  0.76413521  0.34487964    -0.12100
C1920       C  0.86439261  0.75783175  0.35894979     0.23200
C1921       C  0.88046128  0.77244507  0.36483140    -0.12700
C1922       C  0.87988545  0.79363312  0.35714927     0.04700
C1923       C  0.86436629  0.73547876  0.36680964     0.27100
C1924       C  0.85057371  0.72963222  0.38367708    -0.13400
C1925       C  0.84543557  0.70801162  0.38700494     0.05200
C1926       C  0.85329131  0.69235581  0.37289274    -0.09300
C1927       C  0.86862000  0.69799404  0.35735390     0.06000
C1928       C  0.87439993  0.71952946  0.35453797    -0.13700
Br1929     Br  0.90354235  0.76306770  0.38287297    -0.05800
Br1930     Br  0.82351892  0.79259019  0.31875956    -0.00200
Br1931     Br  0.82666930  0.69977198  0.41009569     0.00300
Br1932     Br  0.89398420  0.72752784  0.33207728    -0.04100
Br1933     Br  0.90353747  0.81251779  0.36318039     0.00400
Br1934     Br  0.82720084  0.74332707  0.33531012    -0.03400
Br1935     Br  0.83663382  0.75143686  0.40035488    -0.04300
Br1936     Br  0.87942836  0.67672840  0.33793004    -0.00300
C1937       C  0.56131183  0.17297970  0.37243544     0.01100
C1938       C  0.54846028  0.19062740  0.37900231     0.03900
C1939       C  0.52612997  0.18850531  0.38048452    -0.12100
C1940       C  0.51594059  0.16980701  0.37339134     0.23200
C1941       C  0.52826998  0.15240936  0.36645554    -0.12700
C1942       C  0.55081830  0.15355163  0.36684457     0.04700
C1943       C  0.49218657  0.16939986  0.37205583     0.27100
C1944       C  0.47984565  0.15965307  0.38821806    -0.13400
C1945       C  0.45746085  0.16228906  0.38852361     0.05200
C1946       C  0.44735498  0.17506871  0.37291021    -0.09300
C1947       C  0.45978195  0.18435654  0.35646848     0.06000
C1948       C  0.48198559  0.18106144  0.35575939    -0.13700
Br1949     Br  0.51401556  0.12708477  0.35609701    -0.05800
Br1950     Br  0.56017974  0.21873572  0.38485577    -0.00200
Br1951     Br  0.44104096  0.14995520  0.41149931     0.00300
Br1952     Br  0.49874722  0.19305394  0.33272978    -0.04100
Br1953     Br  0.56653880  0.12775369  0.36071885     0.00400
Br1954     Br  0.50909156  0.21144215  0.39225242    -0.03400
Br1955     Br  0.49378795  0.14354067  0.41047056    -0.04300
Br1956     Br  0.44667133  0.20215172  0.33505604    -0.00300
C1957       C  0.61746909  0.55282677  0.17212754     0.01100
C1958       C  0.62715472  0.54443141  0.15344119     0.03900
C1959       C  0.62972718  0.52214957  0.15113601    -0.12100
C1960       C  0.62277598  0.50820163  0.16740935     0.23200
C1961       C  0.61253118  0.51645141  0.18563298    -0.12700
C1962       C  0.60920647  0.53850467  0.18765095     0.04700
C1963       C  0.62513556  0.48470010  0.16526564     0.27100
C1964       C  0.60714000  0.47216937  0.16001329    -0.13400
C1965       C  0.60809632  0.44981381  0.16169238     0.05200
C1966       C  0.62727490  0.43987572  0.16785616    -0.09300
C1967       C  0.64572144  0.45225528  0.17147118     0.06000
C1968       C  0.64457735  0.47468607  0.17060623    -0.13700
Br1969     Br  0.60338234  0.49738408  0.20819686    -0.05800
Br1970     Br  0.63723711  0.56299837  0.13095319    -0.00200
Br1971     Br  0.58304797  0.43276347  0.15588481     0.00300
Br1972     Br  0.66933121  0.49167984  0.17762923    -0.04100
Br1973     Br  0.59175704  0.54861011  0.21111989     0.00400
Br1974     Br  0.64305557  0.51054961  0.12585990    -0.03400
Br1975     Br  0.58100616  0.48581069  0.15113472    -0.04300
Br1976     Br  0.67238591  0.43838465  0.17792649    -0.00300
C1977       C  0.56140629  0.37388745  0.17063217     0.01100
C1978       C  0.55092759  0.36350263  0.15340303     0.03900
C1979       C  0.52840159  0.36367809  0.15197788    -0.12100
C1980       C  0.51611986  0.37452644  0.16738281     0.23200
C1981       C  0.52639697  0.38526205  0.18424867    -0.12700
C1982       C  0.54884019  0.38495245  0.18597976     0.04700
C1983       C  0.49231559  0.37436272  0.16625137     0.27100
C1984       C  0.48134551  0.39053954  0.15510297    -0.13400
C1985       C  0.45880060  0.39117959  0.15536148     0.05200
C1986       C  0.44711540  0.37586165  0.16716322    -0.09300
C1987       C  0.45812391  0.35900133  0.17724956     0.06000
C1988       C  0.48062324  0.35845189  0.17710024    -0.13700
Br1989     Br  0.50942490  0.40046469  0.20506573    -0.05800
Br1990     Br  0.56695192  0.34826077  0.13193407    -0.00200
Br1991     Br  0.44407431  0.41343091  0.14003878     0.00300
Br1992     Br  0.49558039  0.33639327  0.19250616    -0.04100
Br1993     Br  0.56190777  0.40081065  0.20911685     0.00400
Br1994     Br  0.51409565  0.34869696  0.12911619    -0.03400
Br1995     Br  0.49737163  0.41243010  0.14042933    -0.04300
Br1996     Br  0.44230628  0.33590028  0.19015772    -0.00300
C1997       C  0.62037690  0.31678195  0.23686817     0.01100
C1998       C  0.59969381  0.31577859  0.24583784     0.03900
C1999       C  0.59554705  0.30209118  0.26327776    -0.12100
C2000       C  0.61197305  0.28919007  0.27155666     0.23200
C2001       C  0.63256715  0.29008038  0.26252491    -0.12700
C2002       C  0.63677378  0.30375868  0.24524394     0.04700
C2003       C  0.60803916  0.27413119  0.28944367     0.27100
C2004       C  0.61199577  0.28062556  0.31066187    -0.13400
C2005       C  0.61426228  0.26523042  0.32689201     0.05200
C2006       C  0.61275382  0.24337264  0.32184052    -0.09300
C2007       C  0.60696514  0.23700824  0.30101502     0.06000
C2008       C  0.60439452  0.25240773  0.28486879    -0.13700
Br2009     Br  0.65522875  0.27270961  0.27424961    -0.05800
Br2010     Br  0.57681822  0.33227303  0.23350964    -0.00200
Br2011     Br  0.62171273  0.27389285  0.35554792     0.00300
Br2012     Br  0.59781715  0.24373392  0.25599774    -0.04100
Br2013     Br  0.66544603  0.30510151  0.23388316     0.00400
Br2014     Br  0.56754455  0.30107219  0.27603070    -0.03400
Br2015     Br  0.61632751  0.31044069  0.31698804    -0.04300
Br2016     Br  0.60397644  0.20708587  0.29433550    -0.00300
C2017       C  0.67363724  0.05595201  0.11995032     0.01100
C2018       C  0.68966897  0.04123608  0.11353023     0.03900
C2019       C  0.68570202  0.01917691  0.11441874    -0.12100
C2020       C  0.66559514  0.01150676  0.12086444     0.23200
C2021       C  0.64949076  0.02587535  0.12696379    -0.12700
C2022       C  0.65355411  0.04800875  0.12694346     0.04700
C2023       C  0.66206480  0.98816917  0.12235089     0.27100
C2024       C  0.65812828  0.97605175  0.10374480    -0.13400
C2025       C  0.65824514  0.95359520  0.10477109     0.05200
C2026       C  0.66173456  0.94332710  0.12450751    -0.09300
C2027       C  0.66417909  0.95551280  0.14323295     0.06000
C2028       C  0.66482581  0.97786003  0.14214619    -0.13700
Br2029     Br  0.62194242  0.01496191  0.13565771    -0.05800
Br2030     Br  0.71710244  0.05053783  0.10257699    -0.00200
Br2031     Br  0.65521009  0.93694058  0.07899943     0.00300
Br2032     Br  0.67115996  0.99429233  0.16749713    -0.04100
Br2033     Br  0.63182983  0.06687300  0.13802457     0.00400
Br2034     Br  0.70804146  0.99914544  0.10716968    -0.03400
Br2035     Br  0.65396941  0.99031829  0.07673346    -0.04300
Br2036     Br  0.66682811  0.94150931  0.17038528    -0.00300
C2037       C  0.64624150  0.13206525  0.18564456     0.01100
C2038       C  0.63574047  0.15025721  0.19368221     0.03900
C2039       C  0.63059751  0.15156323  0.21553269    -0.12100
C2040       C  0.63485500  0.13416169  0.22914316     0.23200
C2041       C  0.64241925  0.11486539  0.22041831    -0.12700
C2042       C  0.64878066  0.11399799  0.19882060     0.04700
C2043       C  0.63540038  0.13753344  0.25265974     0.27100
C2044       C  0.65499654  0.14305204  0.26228465    -0.13400
C2045       C  0.65576435  0.14822938  0.28411068     0.05200
C2046       C  0.63685145  0.14833717  0.29648090    -0.09300
C2047       C  0.61734443  0.14212643  0.28704055     0.06000
C2048       C  0.61665242  0.13661868  0.26514342    -0.13700
Br2049     Br  0.64532824  0.09020046  0.23856261    -0.05800
Br2050     Br  0.62877887  0.17352127  0.17474649    -0.00200
Br2051     Br  0.68290945  0.15571440  0.29689572     0.00300
Br2052     Br  0.58999043  0.12881092  0.25187664    -0.04100
Br2053     Br  0.66324342  0.08905083  0.18808901     0.00400
Br2054     Br  0.61941519  0.17779695  0.22714692    -0.03400
Br2055     Br  0.68071023  0.14481267  0.24517102    -0.04300
Br2056     Br  0.59138427  0.14292384  0.30357714    -0.00300
C2057       C  0.65226905  0.19628547  0.12258082     0.01100
C2058       C  0.63705590  0.20242193  0.10702638     0.03900
C2059       C  0.62902359  0.22350095  0.10683622    -0.12100
C2060       C  0.63573572  0.23825929  0.12245939     0.23200
C2061       C  0.64976879  0.23172761  0.13876600    -0.12700
C2062       C  0.65832409  0.21107553  0.13865100     0.04700
C2063       C  0.63072248  0.26137630  0.12089677     0.27100
C2064       C  0.64678045  0.27509163  0.11309369    -0.13400
C2065       C  0.64729249  0.29656272  0.11955446     0.05200
C2066       C  0.63122026  0.30466963  0.13307428    -0.09300
C2067       C  0.61368355  0.29157775  0.13861845     0.06000
C2068       C  0.61334554  0.26994754  0.13233318    -0.13700
Br2069     Br  0.65795837  0.25160436  0.16104063    -0.05800
Br2070     Br  0.62828022  0.18267160  0.08507811    -0.00200
Br2071     Br  0.67144488  0.31406617  0.11202437     0.00300
Br2072     Br  0.59018877  0.25152909  0.14093310    -0.04100
Br2073     Br  0.67846861  0.20353030  0.16092012     0.00400
Br2074     Br  0.60946370  0.23254393  0.08487186    -0.03400
Br2075     Br  0.66957357  0.26356232  0.09580470    -0.04300
Br2076     Br  0.59179685  0.30234816  0.15740084    -0.00300
C2077       C  0.94719988  0.12457452  0.32739061     0.01100
C2078       C  0.96017730  0.13865479  0.31530046     0.03900
C2079       C  0.98248005  0.13866398  0.31791923    -0.12100
C2080       C  0.99203419  0.12512026  0.33306249     0.23200
C2081       C  0.97908337  0.11238784  0.34643021    -0.12700
C2082       C  0.95669999  0.11201322  0.34357397     0.04700
C2083       C  0.01571714  0.12312840  0.33342871     0.27100
C2084       C  0.02568045  0.10813743  0.31996818    -0.13400
C2085       C  0.04809083  0.10730639  0.31860982     0.05200
C2086       C  0.06077765  0.12242851  0.32962106    -0.09300
C2087       C  0.05075366  0.13723562  0.34347258     0.06000
C2088       C  0.02829654  0.13724534  0.34565854    -0.13700
Br2089     Br  0.99224276  0.09490679  0.36807850    -0.05800
Br2090     Br  0.94754179  0.15845544  0.29532710    -0.00200
Br2091     Br  0.06128841  0.08454798  0.30251867     0.00300
Br2092     Br  0.01450920  0.15693192  0.36492357    -0.04100
Br2093     Br  0.93948003  0.09320463  0.36093235     0.00400
Br2094     Br  0.00022222  0.15654852  0.30002361    -0.03400
Br2095     Br  0.00845974  0.08929734  0.30261695    -0.04300
Br2096     Br  0.06737775  0.15847758  0.35846767    -0.00300
C2097       C  0.87248545  0.94219913  0.33132397     0.01100
C2098       C  0.89196992  0.95305221  0.33461411     0.03900
C2099       C  0.89256583  0.97555275  0.33441928    -0.12100
C2100       C  0.87352742  0.98729149  0.33192961     0.23200
C2101       C  0.85390802  0.97641635  0.32985217    -0.12700
C2102       C  0.85354016  0.95400327  0.32853185     0.04700
C2103       C  0.87436734  0.01083359  0.32875794     0.27100
C2104       C  0.87641174  0.02476157  0.34628706    -0.13400
C2105       C  0.87798970  0.04700186  0.34299065     0.05200
C2106       C  0.87644225  0.05561832  0.32202646    -0.09300
C2107       C  0.87344869  0.04140723  0.30455496     0.06000
C2108       C  0.87312644  0.01919917  0.30791330    -0.13700
Br2109     Br  0.82769308  0.99240309  0.32750933    -0.05800
Br2110     Br  0.91815791  0.93704891  0.33693469    -0.00200
Br2111     Br  0.88371756  0.06501927  0.36741146     0.00300
Br2112     Br  0.87145083  0.99995378  0.28377283    -0.04100
Br2113     Br  0.82754152  0.93971376  0.32033485     0.00400
Br2114     Br  0.91961814  0.99032543  0.33561993    -0.03400
Br2115     Br  0.87721560  0.01312573  0.37485392    -0.04300
Br2116     Br  0.86866149  0.05174434  0.27580278    -0.00300
C2117       C  0.83754324  0.10992686  0.24127468     0.01100
C2118       C  0.83916179  0.11950010  0.22093665     0.03900
C2119       C  0.82212972  0.11801744  0.20632224    -0.12100
C2120       C  0.80319581  0.10724407  0.21212185     0.23200
C2121       C  0.80211286  0.09640627  0.23186452    -0.12700
C2122       C  0.81930903  0.09768316  0.24638925     0.04700
C2123       C  0.78380611  0.10948943  0.19852129     0.27100
C2124       C  0.77156051  0.12823943  0.19994931    -0.13400
C2125       C  0.75449729  0.13173086  0.18574633     0.05200
C2126       C  0.74831858  0.11562129  0.17098799    -0.09300
C2127       C  0.76026254  0.09642209  0.17018473     0.06000
C2128       C  0.77823121  0.09367575  0.18353914    -0.13700
Br2129     Br  0.77640980  0.08122512  0.23959117    -0.05800
Br2130     Br  0.86420586  0.13590011  0.21370170    -0.00200
Br2131     Br  0.74152882  0.15975854  0.18538965     0.00300
Br2132     Br  0.79570995  0.06849422  0.18107652    -0.04100
Br2133     Br  0.81714211  0.08431905  0.27408689     0.00400
Br2134     Br  0.82404488  0.13200066  0.17886293    -0.03400
Br2135     Br  0.77853490  0.14942744  0.22133726    -0.04300
Br2136     Br  0.75212225  0.07346106  0.15124972    -0.00300
C2137       C  0.69792072  0.14235236  0.36659328     0.01100
C2138       C  0.70263851  0.12450793  0.35374701     0.03900
C2139       C  0.72406049  0.11861365  0.35021207    -0.12100
C2140       C  0.74071691  0.13048168  0.35969568     0.23200
C2141       C  0.73583277  0.14670953  0.37450876    -0.12700
C2142       C  0.71444434  0.15267457  0.37790549     0.04700
C2143       C  0.76268742  0.12933308  0.35074633     0.27100
C2144       C  0.77814879  0.11551838  0.35930196    -0.13400
C2145       C  0.79921078  0.11563486  0.35114144     0.05200
C2146       C  0.80517612  0.13037808  0.33491989    -0.09300
C2147       C  0.78928936  0.14421618  0.32639293     0.06000
C2148       C  0.76817237  0.14322038  0.33395586    -0.13700
Br2149     Br  0.75866756  0.16239774  0.38809686    -0.05800
Br2150     Br  0.67985929  0.10977525  0.33910516    -0.00200
Br2151     Br  0.81920427  0.09472516  0.36174778     0.00300
Br2152     Br  0.74644905  0.16135021  0.32153367    -0.04100
Br2153     Br  0.70779063  0.17624189  0.39658967     0.00400
Br2154     Br  0.73077249  0.09598799  0.33045300    -0.03400
Br2155     Br  0.77030206  0.09667053  0.38240255    -0.04300
Br2156     Br  0.79582099  0.16596391  0.30528334    -0.00300
C2157       C  0.82094925  0.55512463  0.37765640     0.01100
C2158       C  0.83317054  0.54624970  0.36088831     0.03900
C2159       C  0.83582313  0.52401633  0.35955183    -0.12100
C2160       C  0.82615888  0.51062315  0.37482765     0.23200
C2161       C  0.81403316  0.51941445  0.39160323    -0.12700
C2162       C  0.81137754  0.54162327  0.39302160     0.04700
C2163       C  0.82740418  0.48717739  0.37248914     0.27100
C2164       C  0.81126021  0.47636517  0.36126398    -0.13400
C2165       C  0.81116456  0.45397141  0.36048191     0.05200
C2166       C  0.82730560  0.44212454  0.37102739    -0.09300
C2167       C  0.84431639  0.45325431  0.38106521     0.06000
C2168       C  0.84413666  0.47571254  0.38203302    -0.13700
Br2169     Br  0.80085073  0.50084129  0.41245874    -0.05800
Br2170     Br  0.84504605  0.56427415  0.33882660    -0.00200
Br2171     Br  0.78899126  0.43998056  0.34424543     0.00300
Br2172     Br  0.86629885  0.49097733  0.39718254    -0.04100
Br2173     Br  0.79495595  0.55342340  0.41634399     0.00400
Br2174     Br  0.85220124  0.51169506  0.33651833    -0.03400
Br2175     Br  0.78889145  0.49248970  0.34744565    -0.04300
Br2176     Br  0.86761633  0.43832024  0.39436378    -0.00300
C2177       C  0.68367487  0.38150962  0.23774141     0.01100
C2178       C  0.70052365  0.36689337  0.24243260     0.03900
C2179       C  0.71313058  0.36963177  0.26076355    -0.12100
C2180       C  0.71114507  0.38809633  0.27325388     0.23200
C2181       C  0.69650211  0.40400346  0.26739114    -0.12700
C2182       C  0.68266928  0.40081174  0.24979918     0.04700
C2183       C  0.72552831  0.39076057  0.29190836     0.27100
C2184       C  0.71939367  0.38260624  0.31197123    -0.13400
C2185       C  0.73475117  0.38000705  0.32819521     0.05200
C2186       C  0.75631495  0.38550958  0.32436979    -0.09300
C2187       C  0.76197739  0.39535546  0.30486238     0.06000
C2188       C  0.74662920  0.39789377  0.28864796    -0.13700
Br2189     Br  0.69556989  0.43008888  0.28379187    -0.05800
Br2190     Br  0.70887591  0.34400979  0.22328758    -0.00200
Br2191     Br  0.72647683  0.36679018  0.35470506     0.00300
Br2192     Br  0.75481541  0.40930212  0.26116160    -0.04100
Br2193     Br  0.66374384  0.42391559  0.24213569     0.00400
Br2194     Br  0.73319771  0.34769617  0.26918618    -0.03400
Br2195     Br  0.69036364  0.37303987  0.31635637    -0.04300
Br2196     Br  0.79088402  0.40488065  0.30003086    -0.00300
C2197       C  0.87189302  0.19383714  0.34747772     0.01100
C2198       C  0.85237913  0.20399117  0.35223578     0.03900
C2199       C  0.85202566  0.22571870  0.35774787    -0.12100
C2200       C  0.87133631  0.23714605  0.36002431     0.23200
C2201       C  0.89096245  0.22632943  0.35786151    -0.12700
C2202       C  0.89128288  0.20478615  0.35119424     0.04700
C2203       C  0.87066262  0.26074693  0.36283750     0.27100
C2204       C  0.87400296  0.27417882  0.34499809    -0.13400
C2205       C  0.86921225  0.29606521  0.34639711     0.05200
C2206       C  0.86001740  0.30434005  0.36518868    -0.09300
C2207       C  0.85851230  0.29144523  0.38355091     0.06000
C2208       C  0.86420949  0.26972943  0.38250133    -0.13700
Br2209     Br  0.91728888  0.24143210  0.36322741    -0.05800
Br2210     Br  0.82603353  0.18790930  0.35162477    -0.00200
Br2211     Br  0.87404088  0.31457361  0.32218540     0.00300
Br2212     Br  0.86195487  0.25195699  0.40755666    -0.04100
Br2213     Br  0.91818704  0.19086762  0.34586134     0.00400
Br2214     Br  0.82491498  0.24009666  0.36065161    -0.03400
Br2215     Br  0.88319997  0.26232755  0.31802584    -0.04300
Br2216     Br  0.84787610  0.30353636  0.40979894    -0.00300
C2217       C  0.68145769  0.24435249  0.38265465     0.01100
C2218       C  0.68698531  0.24739586  0.40428044     0.03900
C2219       C  0.70194470  0.26324534  0.40982257    -0.12100
C2220       C  0.71123803  0.27591881  0.39371712     0.23200
C2221       C  0.70517346  0.27329503  0.37218975    -0.12700
C2222       C  0.69030656  0.25751920  0.36665589     0.04700
C2223       C  0.72886843  0.29073585  0.39861155     0.27100
C2224       C  0.72465725  0.31237747  0.40276713    -0.13400
C2225       C  0.74134222  0.32739387  0.40162514     0.05200
C2226       C  0.76160434  0.32090744  0.39410059    -0.09300
C2227       C  0.76622759  0.29892345  0.39237513     0.06000
C2228       C  0.74992617  0.28382447  0.39519969    -0.13700
Br2229     Br  0.71787355  0.29091236  0.35015505    -0.05800
Br2230     Br  0.67512515  0.22900596  0.42601107    -0.00200
Br2231     Br  0.73583872  0.35669364  0.40931167     0.00300
Br2232     Br  0.75583283  0.25373391  0.39216717    -0.04100
Br2233     Br  0.68205704  0.25404611  0.33706835     0.00400
Br2234     Br  0.71040321  0.26717874  0.43918804    -0.03400
Br2235     Br  0.69567961  0.32163337  0.40748809    -0.04300
Br2236     Br  0.79463559  0.28934018  0.38534580    -0.00300
C2237       C  0.06014002  0.32374339  0.12278493     0.01100
C2238       C  0.04684850  0.30922151  0.13408278     0.03900
C2239       C  0.02452366  0.31148155  0.13348018    -0.12100
C2240       C  0.01528336  0.32896296  0.12290570     0.23200
C2241       C  0.02839418  0.34462628  0.11351567    -0.12700
C2242       C  0.05072826  0.34185217  0.11293171     0.04700
C2243       C  0.99173603  0.32978003  0.12041129     0.27100
C2244       C  0.98217228  0.31950121  0.10284468    -0.13400
C2245       C  0.95982111  0.31757694  0.10166487     0.05200
C2246       C  0.94682901  0.32555272  0.11839944    -0.09300
C2247       C  0.95652390  0.33670184  0.13560509     0.34800
C2248       C  0.97891410  0.33897934  0.13640203    -0.13700
Br2249     Br  0.01547568  0.36963311  0.10104927    -0.05800
Br2250     Br  0.05880608  0.28658085  0.15134581    -0.00200
Br2251     Br  0.94732014  0.30433549  0.07668251     0.00300
Br2252     Br  0.99230853  0.35410482  0.15972317    -0.04100
Br2253     Br  0.06768012  0.36238188  0.09722003     0.00400
Br2254     Br  0.00631092  0.29014599  0.14647137    -0.03400
Br2255     Br  0.99996976  0.30738270  0.08072424    -0.04300
Br2256     Br  0.93969426  0.34751519  0.15914033    -0.00300
C2257       C  0.82801594  0.24838910  0.11311014     0.01100
C2258       C  0.82990988  0.23687341  0.09358943     0.03900
C2259       C  0.81500645  0.22078138  0.08849755    -0.12100
C2260       C  0.79879771  0.21543254  0.10304527     0.23200
C2261       C  0.79700732  0.22633362  0.12257862    -0.12700
C2262       C  0.81149263  0.24266635  0.12772575     0.04700
C2263       C  0.78362642  0.19796335  0.09840611     0.27100
C2264       C  0.76320028  0.20289405  0.09046369    -0.13400
C2265       C  0.74683722  0.18757917  0.09151983     0.05200
C2266       C  0.75105497  0.16726618  0.10007868    -0.09300
C2267       C  0.77201115  0.16165822  0.10597179     0.06000
C2268       C  0.78828849  0.17711391  0.10538584    -0.13700
Br2269     Br  0.77447907  0.21856812  0.14241123    -0.05800
Br2270     Br  0.85268564  0.24238706  0.07347204    -0.00200
Br2271     Br  0.71819529  0.19503179  0.08325469     0.00300
Br2272     Br  0.81626320  0.17055097  0.11652612    -0.04100
Br2273     Br  0.80892653  0.25545316  0.15587794     0.00400
Br2274     Br  0.81631872  0.20609493  0.06138942    -0.03400
Br2275     Br  0.75716494  0.23137670  0.08048516    -0.04300
Br2276     Br  0.77786702  0.13350950  0.11701467    -0.00300
C2277       C  0.90811656  0.17486958  0.25293617     0.01100
C2278       C  0.91641834  0.16864165  0.23274879     0.03900
C2279       C  0.92000152  0.18424554  0.21693696    -0.12100
C2280       C  0.91512050  0.20572425  0.22118866     0.23200
C2281       C  0.91091406  0.21222719  0.24228529    -0.12700
C2282       C  0.90826531  0.19681112  0.25835453     0.04700
C2283       C  0.90989870  0.22019153  0.20324833     0.27100
C2284       C  0.92413402  0.23631333  0.19656652    -0.13400
C2285       C  0.91778189  0.25105534  0.18077649     0.05200
C2286       C  0.89725687  0.24941526  0.17153153    -0.09300
C2287       C  0.88389810  0.23207913  0.17696307     0.06000
C2288       C  0.88990304  0.21790073  0.19317019    -0.13700
Br2289     Br  0.90656161  0.24202083  0.24873308    -0.05800
Br2290     Br  0.92200679  0.13916269  0.22569501    -0.00200
Br2291     Br  0.93697918  0.27368673  0.17236491     0.00300
Br2292     Br  0.87026341  0.19568913  0.20205503    -0.04100
Br2293     Br  0.90497816  0.20593935  0.28770185     0.00400
Br2294     Br  0.92936716  0.17626232  0.18864200    -0.03400
Br2295     Br  0.95206487  0.23826037  0.20936195    -0.04300
Br2296     Br  0.85794013  0.22669994  0.16124921    -0.00300
C2297       C  0.88112098  0.34737378  0.19346848     0.01100
C2298       C  0.88982617  0.33495510  0.21025271     0.03900
C2299       C  0.88858937  0.34219609  0.23147497    -0.12100
C2300       C  0.87955214  0.36223286  0.23588287     0.23200
C2301       C  0.87426206  0.37604659  0.21898749    -0.12700
C2302       C  0.87428476  0.36843738  0.19781101     0.04700
C2303       C  0.87019819  0.36606463  0.25727988     0.27100
C2304       C  0.84864961  0.36057957  0.26052463    -0.13400
C2305       C  0.83955814  0.36208478  0.28094420     0.05200
C2306       C  0.85217342  0.36874112  0.29866690    -0.09300
C2307       C  0.87365152  0.37525014  0.29503815     0.06000
C2308       C  0.88254668  0.37387936  0.27433744    -0.13700
Br2309     Br  0.86432051  0.40442825  0.22546901    -0.05800
Br2310     Br  0.90227634  0.30737853  0.20460342    -0.00200
Br2311     Br  0.80958316  0.35472291  0.28370683     0.00300
Br2312     Br  0.91190769  0.38184215  0.26923867    -0.04100
Br2313     Br  0.86151895  0.38578935  0.17581672     0.00400
Br2314     Br  0.89691539  0.32371339  0.25475399    -0.03400
Br2315     Br  0.83168109  0.34991121  0.23686429    -0.04300
Br2316     Br  0.89180976  0.38472614  0.31815928    -0.00300
C2317       C  0.80809030  0.34832746  0.12771149     0.01100
C2318       C  0.78983703  0.33493229  0.12823103     0.03900
C2319       C  0.76929551  0.34371174  0.12931581    -0.12100
C2320       C  0.76648624  0.36594141  0.12812427     0.23200
C2321       C  0.78438358  0.37936167  0.12535365    -0.12700
C2322       C  0.80520962  0.37066203  0.12546050     0.04700
C2323       C  0.74470554  0.37463241  0.13168822     0.27100
C2324       C  0.72890497  0.37236283  0.11578482    -0.13400
C2325       C  0.70705846  0.37262233  0.12144851     0.05200
C2326       C  0.70111373  0.37551250  0.14308368    -0.09300
C2327       C  0.71699803  0.38186506  0.15794812     0.06000
C2328       C  0.73872752  0.38074295  0.15247076    -0.13700
Br2329     Br  0.78020447  0.40968281  0.12221289    -0.05800
Br2330     Br  0.79237548  0.30432813  0.12621865    -0.00200
Br2331     Br  0.68588124  0.36751347  0.09971577     0.00300
Br2332     Br  0.76030752  0.38513057  0.17413708    -0.04100
Br2333     Br  0.82942225  0.38969628  0.12356659     0.00400
Br2334     Br  0.74491219  0.32515284  0.13380703    -0.03400
Br2335     Br  0.73751874  0.36664155  0.08674131    -0.04300
Br2336     Br  0.70922171  0.39195010  0.18605207    -0.00300
C2337       C  0.61732229  0.82128010  0.56200771     0.01100
C2338       C  0.63495995  0.83044603  0.55129445     0.03900
C2339       C  0.63502086  0.83207671  0.52876778    -0.12100
C2340       C  0.61753689  0.82444205  0.51671484     0.23200
C2341       C  0.59961251  0.81590707  0.52745100    -0.12700
C2342       C  0.59946512  0.81439141  0.54998439     0.04700
C2343       C  0.61876458  0.82371339  0.49280356     0.27100
C2344       C  0.60916035  0.83961702  0.48013125    -0.13400
C2345       C  0.61004451  0.83846713  0.45752034     0.05200
C2346       C  0.62025145  0.82098915  0.44725719    -0.09300
C2347       C  0.63046885  0.80545120  0.46027619     0.06000
C2348       C  0.62960947  0.80681684  0.48277834    -0.13700
Br2349     Br  0.57545940  0.80577870  0.51114580    -0.05800
Br2350     Br  0.65971096  0.83945502  0.56734979    -0.00200
Br2351     Br  0.59647371  0.86077061  0.44114623     0.00300
Br2352     Br  0.64309159  0.78519162  0.50018659    -0.04100
Br2353     Br  0.57452152  0.80325241  0.56441175     0.00400
Br2354     Br  0.65939775  0.84412974  0.51422318    -0.03400
Br2355     Br  0.59430898  0.86275232  0.49400311    -0.04300
Br2356     Br  0.64667510  0.78240376  0.44784324    -0.00300
C2357       C  0.62092197  0.68110745  0.76990078     0.01100
C2358       C  0.59944958  0.68473344  0.76413690     0.03900
C2359       C  0.59456965  0.69959490  0.74800764    -0.12100
C2360       C  0.61114797  0.71050636  0.73741451     0.23200
C2361       C  0.63256528  0.70718756  0.74341288    -0.12700
C2362       C  0.63746758  0.69250802  0.75959771     0.04700
C2363       C  0.60648209  0.72484325  0.71926648     0.27100
C2364       C  0.60875281  0.71717271  0.69820843    -0.13400
C2365       C  0.60889819  0.73156760  0.68098594     0.05200
C2366       C  0.60715594  0.75364377  0.68495256    -0.09300
C2367       C  0.60295753  0.76105882  0.70580768     0.06000
C2368       C  0.60251424  0.74662530  0.72298085    -0.13700
Br2369     Br  0.65526574  0.72248947  0.72904375    -0.05800
Br2370     Br  0.57670720  0.66962882  0.77839554    -0.00200
Br2371     Br  0.61388735  0.72118898  0.65233727     0.00300
Br2372     Br  0.59817556  0.75681038  0.75175886    -0.04100
Br2373     Br  0.66707028  0.68704169  0.76650536     0.00400
Br2374     Br  0.56528654  0.70508535  0.74025138    -0.03400
Br2375     Br  0.61373352  0.68716830  0.69328497    -0.04300
Br2376     Br  0.59902600  0.79118480  0.71088444    -0.00300
C2377       C  0.83067968  0.62052471  0.55924390     0.01100
C2378       C  0.84011765  0.63802230  0.54840652     0.03900
C2379       C  0.84262113  0.63749183  0.52601228    -0.12100
C2380       C  0.83500402  0.61994311  0.51417911     0.23200
C2381       C  0.82640537  0.60214011  0.52489233    -0.12700
C2382       C  0.82448220  0.60225890  0.54732854     0.04700
C2383       C  0.83344514  0.62137450  0.49050742     0.27100
C2384       C  0.81641819  0.63284819  0.48138460    -0.13400
C2385       C  0.81445280  0.63425887  0.45906328     0.05200
C2386       C  0.82851174  0.62286302  0.44565052    -0.09300
C2387       C  0.84564487  0.61141712  0.45475947     0.06000
C2388       C  0.84836454  0.61107398  0.47715378    -0.13700
Br2389     Br  0.81645784  0.57788506  0.50858524    -0.05800
Br2390     Br  0.84776560  0.66374045  0.56355835    -0.00200
Br2391     Br  0.79318405  0.65286865  0.44697110     0.00300
Br2392     Br  0.87215063  0.59610988  0.48964727    -0.04100
Br2393     Br  0.81347490  0.57703452  0.56139798     0.00400
Br2394     Br  0.85574818  0.66117105  0.51118104    -0.03400
Br2395     Br  0.79516773  0.64588616  0.49957374    -0.04300
Br2396     Br  0.86462015  0.59516563  0.43673729    -0.00300
C2397       C  0.67010925  0.74665057  0.61851765     0.01100
C2398       C  0.67597500  0.74323595  0.59698962     0.03900
C2399       C  0.69136672  0.72759410  0.59186949    -0.12100
C2400       C  0.70078350  0.71529599  0.60821521     0.23200
C2401       C  0.69426234  0.71811833  0.62957586    -0.12700
C2402       C  0.67908484  0.73374174  0.63474619     0.04700
C2403       C  0.71875793  0.70050277  0.60370578     0.27100
C2404       C  0.71504323  0.67838829  0.60174354    -0.13400
C2405       C  0.73225969  0.66394942  0.60302576     0.05200
C2406       C  0.75309650  0.67167953  0.60710677    -0.09300
C2407       C  0.75700391  0.69386042  0.60619835     0.06000
C2408       C  0.73987101  0.70824339  0.60473106    -0.13700
Br2409     Br  0.70680045  0.70095025  0.65196883    -0.05800
Br2410     Br  0.66419703  0.76099566  0.57476085    -0.00200
Br2411     Br  0.72692077  0.63372069  0.60043232     0.00300
Br2412     Br  0.74512746  0.73858618  0.60610260    -0.04100
Br2413     Br  0.67079892  0.73734406  0.66435155     0.00400
Br2414     Br  0.70022716  0.72343195  0.56266154    -0.03400
Br2415     Br  0.68613316  0.66797096  0.59933285    -0.04300
Br2416     Br  0.78592954  0.70454246  0.60688089    -0.00300
C2417       C  0.75787135  0.61360459  0.68095702     0.01100
C2418       C  0.73713235  0.62227005  0.68039240     0.03900
C2419       C  0.72317685  0.61935337  0.69775827    -0.12100
C2420       C  0.72959766  0.60710109  0.71552665     0.23200
C2421       C  0.74999151  0.59761901  0.71572225    -0.12700
C2422       C  0.76445830  0.60175171  0.69895470     0.04700
C2423       C  0.71586686  0.60685421  0.73491417     0.27100
C2424       C  0.72052604  0.62083381  0.75185749    -0.13400
C2425       C  0.70577385  0.62366944  0.76857129     0.05200
C2426       C  0.68514826  0.61395723  0.76752235    -0.09300
C2427       C  0.68107659  0.59901706  0.75082429     0.06000
C2428       C  0.69680169  0.59496777  0.73516805    -0.13700
Br2429     Br  0.75836110  0.57984885  0.73945197    -0.05800
Br2430     Br  0.72875242  0.64059512  0.65716560    -0.00200
Br2431     Br  0.71491122  0.64086553  0.79269633     0.00300
Br2432     Br  0.69208482  0.57384277  0.71315513    -0.04100
Br2433     Br  0.79388301  0.59326769  0.70181891     0.00400
Br2434     Br  0.69589273  0.63374716  0.69803569    -0.03400
Br2435     Br  0.74672809  0.63733214  0.75139290    -0.04300
Br2436     Br  0.65368344  0.58512701  0.74740636    -0.00300
C2437       C  0.66582357  0.87010671  0.06171319     0.01100
C2438       C  0.64693150  0.87447993  0.05011442     0.03900
C2439       C  0.64683844  0.87298863  0.02757223    -0.12100
C2440       C  0.66583092  0.86827730  0.01637075     0.23200
C2441       C  0.68460009  0.86374557  0.02787254    -0.12700
C2442       C  0.68442856  0.86391400  0.05035707     0.04700
C2443       C  0.66658225  0.86925988  0.99254874     0.27100
C2444       C  0.66877335  0.85041331  0.98035823    -0.13400
C2445       C  0.67205776  0.85164658  0.95808855     0.05200
C2446       C  0.67146280  0.87155795  0.94764227    -0.09300
C2447       C  0.66879800  0.89035809  0.95973527     0.06000
C2448       C  0.66691548  0.88925943  0.98215556    -0.13700
Br2449     Br  0.71099701  0.85825519  0.01274901    -0.05800
Br2450     Br  0.62157627  0.88429319  0.06464225    -0.00200
Br2451     Br  0.67969119  0.82639805  0.94224837     0.00300
Br2452     Br  0.66583006  0.91523475  0.99874903    -0.04100
Br2453     Br  0.70986539  0.85484200  0.06519675     0.00400
Br2454     Br  0.62080831  0.87795844  0.01185586    -0.03400
Br2455     Br  0.66779752  0.82292638  0.99426535    -0.04300
Br2456     Br  0.66793466  0.91769941  0.94555519    -0.00300
C2457       C  0.63892565  0.87290583  0.81117290     0.01100
C2458       C  0.64271847  0.89070291  0.79797987     0.03900
C2459       C  0.63815651  0.88951810  0.77589263    -0.12100
C2460       C  0.63001458  0.87040609  0.76704296     0.23200
C2461       C  0.62363799  0.85374160  0.78085254    -0.12700
C2462       C  0.62740267  0.85542711  0.80297198     0.04700
C2463       C  0.63100565  0.86648855  0.74350525     0.27100
C2464       C  0.61241543  0.86681342  0.73073891    -0.13400
C2465       C  0.61311063  0.85936580  0.70937480     0.05200
C2466       C  0.63267130  0.85257179  0.70039572    -0.09300
C2467       C  0.65152957  0.85405235  0.71272386     0.06000
C2468       C  0.65062022  0.86041415  0.73427643    -0.13700
Br2469     Br  0.61188866  0.82765270  0.76935641    -0.05800
Br2470     Br  0.65467959  0.91626277  0.81019783    -0.00200
Br2471     Br  0.58700823  0.85659469  0.69325466     0.00300
Br2472     Br  0.67613834  0.85936719  0.75162880    -0.04100
Br2473     Br  0.61668385  0.83402463  0.82233568     0.00400
Br2474     Br  0.64458016  0.91331262  0.75747478    -0.03400
Br2475     Br  0.58596619  0.87677611  0.74293000    -0.04300
Br2476     Br  0.67882288  0.84707118  0.70009281    -0.00300
C2477       C  0.64581573  0.80215130  0.87178231     0.01100
C2478       C  0.64726460  0.78780364  0.85431834     0.03900
C2479       C  0.64094551  0.76639317  0.85671519    -0.12100
C2480       C  0.63464477  0.75860374  0.87689163     0.23200
C2481       C  0.63167948  0.77304541  0.89391656    -0.12700
C2482       C  0.63653588  0.79493671  0.89114200     0.04700
C2483       C  0.63483554  0.73506180  0.88040300     0.27100
C2484       C  0.61590953  0.72277932  0.88038090    -0.13400
C2485       C  0.61706730  0.70031853  0.87854463     0.05200
C2486       C  0.63683396  0.69051092  0.87398462    -0.09300
C2487       C  0.65577998  0.70252298  0.87696089     0.06000
C2488       C  0.65471806  0.72459321  0.88075919    -0.13700
Br2489     Br  0.62235078  0.76255579  0.92136777    -0.05800
Br2490     Br  0.65858171  0.79691115  0.82699566    -0.00200
Br2491     Br  0.59191611  0.68327305  0.88298001     0.00300
Br2492     Br  0.68064949  0.74096025  0.88446418    -0.04100
Br2493     Br  0.63155838  0.81449143  0.91436716     0.00400
Br2494     Br  0.64208436  0.74714998  0.83255203    -0.03400
Br2495     Br  0.58851735  0.73670929  0.88088758    -0.04300
Br2496     Br  0.68341016  0.68898200  0.87496869    -0.00300
C2497       C  0.87494835  0.67035037  0.94466234     0.01100
C2498       C  0.85442474  0.66928655  0.95393719     0.03900
C2499       C  0.85215546  0.66881889  0.97638121    -0.12100
C2500       C  0.87040160  0.66775564  0.98957904     0.23200
C2501       C  0.89083168  0.66645055  0.98013692    -0.12700
C2502       C  0.89314035  0.66838456  0.95780732     0.04700
C2503       C  0.86845622  0.67017550  0.01323985     0.27100
C2504       C  0.87377838  0.68984995  0.02268887    -0.13400
C2505       C  0.87319393  0.69231763  0.04505376     0.05200
C2506       C  0.86629273  0.67521305  0.05843249    -0.09300
C2507       C  0.86084256  0.65542217  0.04872492     0.06000
C2508       C  0.86209829  0.65296079  0.02627911    -0.13700
Br2509     Br  0.91567051  0.66260905  0.99801023    -0.05800
Br2510     Br  0.82943682  0.66891711  0.93592084    -0.00200
Br2511     Br  0.88371764  0.71904735  0.05665859     0.00300
Br2512     Br  0.85537176  0.62585546  0.01320085    -0.04100
Br2513     Br  0.92125376  0.66811709  0.94519578     0.00400
Br2514     Br  0.82415131  0.67090543  0.98907873    -0.03400
Br2515     Br  0.88216352  0.71358249  0.00468513    -0.04300
Br2516     Br  0.85127956  0.63140598  0.06558013    -0.00300
C2517       C  0.85567704  0.63537456  0.69626002     0.01100
C2518       C  0.86060319  0.65480813  0.70666389     0.03900
C2519       C  0.86660122  0.65495253  0.72831269    -0.12100
C2520       C  0.86929666  0.63560609  0.73948437     0.23200
C2521       C  0.86703315  0.61610355  0.72843067    -0.12700
C2522       C  0.85986036  0.61590458  0.70699037     0.04700
C2523       C  0.87240519  0.63610831  0.76314497     0.27100
C2524       C  0.89173281  0.64364777  0.77207129    -0.13400
C2525       C  0.89250171  0.64978802  0.79378807     0.05200
C2526       C  0.87449838  0.64660801  0.80700818    -0.09300
C2527       C  0.85638236  0.63610939  0.79872796     0.06000
C2528       C  0.85491428  0.63175665  0.77673058    -0.13700
Br2529     Br  0.87310478  0.58970471  0.74307401    -0.05800
Br2530     Br  0.86019822  0.68144457  0.69112679    -0.00200
Br2531     Br  0.91724312  0.66460978  0.80462563     0.00300
Br2532     Br  0.82812035  0.62184164  0.76506148    -0.04100
Br2533     Br  0.85474432  0.58885119  0.69311620     0.00400
Br2534     Br  0.86979935  0.68191498  0.74292876    -0.03400
Br2535     Br  0.91664284  0.64670791  0.75415258    -0.04300
Br2536     Br  0.83328194  0.62823182  0.81764859    -0.00300
C2537       C  0.69935156  0.61759811  0.86320239     0.01100
C2538       C  0.71406862  0.60753408  0.84944348     0.03900
C2539       C  0.73609566  0.60932462  0.85332821    -0.12100
C2540       C  0.74337543  0.62052561  0.87144683     0.23200
C2541       C  0.72859373  0.62711804  0.88712550    -0.12700
C2542       C  0.70648246  0.62564459  0.88301294     0.04700
C2543       C  0.76526473  0.62975372  0.87123707     0.27100
C2544       C  0.78251387  0.61959927  0.88137290    -0.13400
C2545       C  0.80314906  0.62885878  0.88073255     0.05200
C2546       C  0.80674381  0.64810065  0.86915489    -0.09300
C2547       C  0.78935804  0.65724436  0.85772889     0.06000
C2548       C  0.76871128  0.64868297  0.85967783    -0.13700
Br2549     Br  0.73878366  0.64036538  0.91300036    -0.05800
Br2550     Br  0.70392022  0.59250429  0.82451857    -0.00200
Br2551     Br  0.82591083  0.61478662  0.89601450     0.00300
Br2552     Br  0.74476421  0.66302778  0.84639252    -0.04100
Br2553     Br  0.68625781  0.63652483  0.90349829     0.00400
Br2554     Br  0.75630028  0.59908911  0.83241951    -0.03400
Br2555     Br  0.77759138  0.59295402  0.89605018    -0.04300
Br2556     Br  0.79331350  0.68026575  0.83736577    -0.00300
C2557       C  0.83110437  0.74979318  0.89088193     0.01100
C2558       C  0.82855513  0.76704872  0.87659077     0.03900
C2559       C  0.81190269  0.78180127  0.87948704    -0.12100
C2560       C  0.79710751  0.77903032  0.89624917     0.23200
C2561       C  0.80024818  0.76249200  0.91124597    -0.12700
C2562       C  0.81754561  0.74820962  0.90884246     0.04700
C2563       C  0.77762828  0.79271702  0.89683151     0.27100
C2564       C  0.77820529  0.81295395  0.90657125    -0.13400
C2565       C  0.76131846  0.82757178  0.90346265     0.05200
C2566       C  0.74348766  0.82190111  0.89054513    -0.09300
C2567       C  0.74209724  0.80061935  0.88276908     0.06000
C2568       C  0.75924612  0.78634828  0.88554947    -0.13700
Br2569     Br  0.78014715  0.75878049  0.93431015    -0.05800
Br2570     Br  0.84767850  0.77018615  0.85257282    -0.00200
Br2571     Br  0.76378920  0.85550828  0.91628765     0.00300
Br2572     Br  0.75807914  0.75816728  0.87303519    -0.04100
Br2573     Br  0.82208150  0.72598850  0.92954965     0.00400
Br2574     Br  0.80874140  0.80541955  0.85990408    -0.03400
Br2575     Br  0.80282700  0.82079042  0.92341352    -0.04300
Br2576     Br  0.71650114  0.79022927  0.86886665    -0.00300
C2577       C  0.87759334  0.80402458  0.64954037     0.01100
C2578       C  0.86902641  0.79903410  0.62918632     0.03900
C2579       C  0.86844892  0.77766266  0.62223945    -0.12100
C2580       C  0.87681827  0.76144815  0.63530432     0.23200
C2581       C  0.88824292  0.76678416  0.65388983    -0.12700
C2582       C  0.88838606  0.78796057  0.66120512     0.04700
C2583       C  0.86819797  0.73953903  0.63335677     0.27100
C2584       C  0.84945966  0.73461813  0.64470793    -0.13400
C2585       C  0.84113689  0.71387101  0.64433301     0.05200
C2586       C  0.85131176  0.69766893  0.63201825    -0.09300
C2587       C  0.87044928  0.70269302  0.62090072     0.06000
C2588       C  0.87866600  0.72370671  0.62140326    -0.13700
Br2589     Br  0.90098462  0.74442907  0.67086145    -0.05800
Br2590     Br  0.85542084  0.82053085  0.61188994    -0.00200
Br2591     Br  0.81651630  0.70821911  0.66244157     0.00300
Br2592     Br  0.90404594  0.73117077  0.60555751    -0.04100
Br2593     Br  0.90189990  0.79423939  0.68820796     0.00400
Br2594     Br  0.85353570  0.76997190  0.59634385    -0.03400
Br2595     Br  0.83514594  0.75665125  0.66110561    -0.04300
Br2596     Br  0.88569579  0.68130451  0.60487350    -0.00300
C2597       C  0.89363983  0.82792994  0.75014520     0.01100
C2598       C  0.91297962  0.81644668  0.74897328     0.03900
C2599       C  0.91721803  0.80013701  0.76403115    -0.12100
C2600       C  0.90224573  0.79558826  0.78033064     0.23200
C2601       C  0.88397989  0.80843677  0.78251585    -0.12700
C2602       C  0.88009325  0.82490081  0.76788892     0.04700
C2603       C  0.90440909  0.77662542  0.79447986     0.27100
C2604       C  0.89650551  0.75682817  0.78749097    -0.13400
C2605       C  0.89343630  0.74005278  0.80215153     0.05200
C2606       C  0.89696236  0.74334590  0.82442217    -0.09300
C2607       C  0.90727501  0.76261509  0.83088312     0.06000
C2608       C  0.91091295  0.77908532  0.81586732    -0.13700
Br2609     Br  0.86336540  0.80259479  0.80476254    -0.05800
Br2610     Br  0.93351274  0.82298254  0.72694919    -0.00200
Br2611     Br  0.88471745  0.71266139  0.79083099     0.00300
Br2612     Br  0.92325389  0.80595243  0.82472274    -0.04100
Br2613     Br  0.85673881  0.84415751  0.77292461     0.00400
Br2614     Br  0.94288505  0.78336416  0.76188770    -0.03400
Br2615     Br  0.88803404  0.75339327  0.75794450    -0.04300
Br2616     Br  0.91599624  0.76770571  0.86011096    -0.00300
C2617       C  0.80274600  0.86614186  0.65006678     0.01100
C2618       C  0.78489916  0.86480099  0.66396522     0.03900
C2619       C  0.76420743  0.86172863  0.65580464    -0.12100
C2620       C  0.76067088  0.86147523  0.63359142     0.23200
C2621       C  0.77802094  0.86476414  0.61956037    -0.12700
C2622       C  0.79904919  0.86689427  0.62771381     0.04700
C2623       C  0.73876410  0.85633876  0.62564317     0.27100
C2624       C  0.73319056  0.83491185  0.62178318    -0.13400
C2625       C  0.71154909  0.82880080  0.62113739     0.05200
C2626       C  0.69527660  0.84396392  0.62509878    -0.09300
C2627       C  0.70082842  0.86583261  0.62593230     0.06000
C2628       C  0.72258713  0.87196752  0.62605839    -0.13700
Br2629     Br  0.77285906  0.86549536  0.58918739    -0.05800
Br2630     Br  0.78819998  0.86823857  0.69441297    -0.00200
Br2631     Br  0.70433173  0.79943026  0.61506555     0.00300
Br2632     Br  0.73050248  0.90161222  0.62833802    -0.04100
Br2633     Br  0.82257809  0.86978652  0.60804579     0.00400
Br2634     Br  0.74066825  0.85653465  0.67522505    -0.03400
Br2635     Br  0.75528432  0.81363305  0.61917877    -0.04300
Br2636     Br  0.67902743  0.88731706  0.62869281    -0.00300
C2637       C  0.82226207  0.88376277  0.74784447     0.01100
C2638       C  0.80730768  0.86813318  0.75489936     0.03900
C2639       C  0.79222543  0.87317863  0.77069896    -0.12100
C2640       C  0.79162648  0.89374706  0.77963988     0.23200
C2641       C  0.80613724  0.90947151  0.77266176    -0.12700
C2642       C  0.82156915  0.90451011  0.75692968     0.04700
C2643       C  0.77586378  0.89791026  0.79688176     0.27100
C2644       C  0.75446318  0.90198460  0.79145854    -0.13400
C2645       C  0.73811446  0.89832797  0.80652129     0.05200
C2646       C  0.74313487  0.89064381  0.82721253    -0.09300
C2647       C  0.76491114  0.88872794  0.83318030     0.06000
C2648       C  0.78115668  0.89254958  0.81805759    -0.13700
Br2649     Br  0.80453630  0.93780224  0.78459708    -0.05800
Br2650     Br  0.80759346  0.83904857  0.74429213    -0.00200
Br2651     Br  0.70891493  0.90325258  0.79825247     0.00300
Br2652     Br  0.81076472  0.88832545  0.82557955    -0.04100
Br2653     Br  0.84104098  0.92658689  0.74756099     0.00400
Br2654     Br  0.77227402  0.85161752  0.78056821    -0.03400
Br2655     Br  0.74763823  0.91074613  0.76267046    -0.04300
Br2656     Br  0.77300121  0.87814429  0.86102596    -0.00300
C2657       C  0.16498402  0.62819611  0.44560592     0.01100
C2658       C  0.15047709  0.61576685  0.45759693     0.03900
C2659       C  0.15004626  0.61744523  0.48011607    -0.12100
C2660       C  0.16432632  0.63132036  0.49076265     0.23200
C2661       C  0.17784649  0.64470903  0.47867970    -0.12700
C2662       C  0.17801846  0.64327649  0.45619345     0.04700
C2663       C  0.16721097  0.62965955  0.51439418     0.27100
C2664       C  0.15838205  0.64487823  0.52847176    -0.13400
C2665       C  0.16187077  0.64318263  0.55073701     0.05200
C2666       C  0.17354614  0.62578129  0.55910464    -0.09300
C2667       C  0.18211741  0.61045946  0.54492395     0.06000
C2668       C  0.17941323  0.61271714  0.52271171    -0.13700
Br2669     Br  0.19705504  0.66414528  0.49302322    -0.05800
Br2670     Br  0.13229399  0.59540050  0.44331525    -0.00200
Br2671     Br  0.15196225  0.66555883  0.56948678     0.00300
Br2672     Br  0.19307361  0.59287239  0.50345586    -0.04100
Br2673     Br  0.19626458  0.66198085  0.43984717     0.00400
Br2674     Br  0.13074243  0.59993218  0.49663482    -0.03400
Br2675     Br  0.14188125  0.66824276  0.51716018    -0.04300
Br2676     Br  0.19693937  0.58570945  0.55578449    -0.00300
C2677       C  0.44110651  0.82825561  0.63026871     0.01100
C2678       C  0.45042029  0.84189494  0.64575201     0.03900
C2679       C  0.47286859  0.84300875  0.64791546    -0.12100
C2680       C  0.48613636  0.83052328  0.63469748     0.23200
C2681       C  0.47690508  0.81709226  0.61916354    -0.12700
C2682       C  0.45456551  0.81586480  0.61698095     0.04700
C2683       C  0.50980682  0.83060188  0.63738124     0.27100
C2684       C  0.52246954  0.84610970  0.62702429    -0.13400
C2685       C  0.54490560  0.84392613  0.62636773     0.05200
C2686       C  0.55484064  0.82623069  0.63626257    -0.09300
C2687       C  0.54214144  0.81163135  0.64801743     0.06000
C2688       C  0.51974423  0.81372000  0.64838998    -0.13700
Br2689     Br  0.49510086  0.80013031  0.60090233    -0.05800
Br2690     Br  0.43260921  0.85794799  0.66513083    -0.00200
Br2691     Br  0.56161947  0.86437169  0.61038327     0.00300
Br2692     Br  0.50239621  0.79282443  0.66311825    -0.04100
Br2693     Br  0.44270622  0.79734191  0.59525887     0.00400
Br2694     Br  0.48556941  0.86121833  0.66931817    -0.03400
Br2695     Br  0.50885462  0.86975626  0.61278826    -0.04300
Br2696     Br  0.55527382  0.78883020  0.66403422    -0.00300
C2697       C  0.37578196  0.82395412  0.44648735     0.01100
C2698       C  0.35964818  0.83670969  0.45571521     0.03900
C2699       C  0.35969039  0.84067794  0.47786897    -0.12100
C2700       C  0.37547425  0.83144463  0.49094324     0.23200
C2701       C  0.39188180  0.81916494  0.48169340    -0.12700
C2702       C  0.39218462  0.81561730  0.45949231     0.04700
C2703       C  0.37378317  0.83278498  0.51456249     0.27100
C2704       C  0.38691093  0.84688717  0.52625292    -0.13400
C2705       C  0.38731261  0.84583868  0.54876110     0.05200
C2706       C  0.37374014  0.83145441  0.55961623    -0.09300
C2707       C  0.35975743  0.81821421  0.54785939     0.06000
C2708       C  0.36008882  0.81857808  0.52541188    -0.13700
Br2709     Br  0.41365187  0.80673619  0.49963243    -0.05800
Br2710     Br  0.33659419  0.84755674  0.43837017    -0.00200
Br2711     Br  0.40784668  0.86258857  0.56454001     0.00300
Br2712     Br  0.34242788  0.79890801  0.50942713    -0.04100
Br2713     Br  0.41551076  0.79988089  0.44690876     0.00400
Br2714     Br  0.33789421  0.85836871  0.49050984    -0.03400
Br2715     Br  0.40468160  0.86717007  0.51129075    -0.04300
Br2716     Br  0.33996902  0.79954821  0.56240657    -0.00300
C2717       C  0.25071109  0.67293549  0.61261126     0.01100
C2718       C  0.25044767  0.68314152  0.59252675     0.03900
C2719       C  0.26486550  0.70000752  0.58839243    -0.12100
C2720       C  0.27961303  0.70629807  0.60424278     0.23200
C2721       C  0.28124793  0.69454068  0.62335967    -0.12700
C2722       C  0.26666801  0.67809391  0.62764463     0.04700
C2723       C  0.29174375  0.72658837  0.60255928     0.27100
C2724       C  0.31276756  0.72665556  0.59484229    -0.13400
C2725       C  0.32635281  0.74417096  0.59899436     0.05200
C2726       C  0.31895606  0.76170973  0.61158283    -0.09300
C2727       C  0.29697918  0.76213991  0.61756644     0.06000
C2728       C  0.28348953  0.74482966  0.61259613    -0.13700
Br2729     Br  0.30290829  0.70170852  0.64419469    -0.05800
Br2730     Br  0.22961099  0.67489969  0.57137092    -0.00200
Br2731     Br  0.35538049  0.74226700  0.58848386     0.00300
Br2732     Br  0.25362001  0.74527172  0.62059057    -0.04100
Br2733     Br  0.26809013  0.66306093  0.65458339     0.00400
Br2734     Br  0.26400218  0.71506832  0.56156384    -0.03400
Br2735     Br  0.32309941  0.70184468  0.57972674    -0.04300
Br2736     Br  0.28457610  0.78558363  0.63338505    -0.00300
C2737       C  0.44768763  0.63051885  0.82982814     0.01100
C2738       C  0.45745239  0.62375875  0.84909569     0.03900
C2739       C  0.47989608  0.62439693  0.85122606    -0.12100
C2740       C  0.49277190  0.63065962  0.83382768     0.23200
C2741       C  0.48314017  0.63767397  0.81476408    -0.12700
C2742       C  0.46075139  0.63836321  0.81303249     0.04700
C2743       C  0.51644620  0.62891713  0.83495478     0.27100
C2744       C  0.52912790  0.64734805  0.83767930    -0.13400
C2745       C  0.55151106  0.64605204  0.83581780     0.05200
C2746       C  0.56140689  0.62615774  0.83254219    -0.09300
C2747       C  0.54873775  0.60771039  0.82995542     0.06000
C2748       C  0.52632359  0.60907958  0.83112451    -0.13700
Br2749     Br  0.50078162  0.64543527  0.79057413    -0.05800
Br2750     Br  0.44056676  0.61193733  0.87208277    -0.00200
Br2751     Br  0.56836215  0.67174669  0.83534639     0.00300
Br2752     Br  0.50904555  0.58390347  0.82672905    -0.04100
Br2753     Br  0.44831432  0.65099654  0.78777382     0.00400
Br2754     Br  0.49324177  0.61616482  0.87776721    -0.03400
Br2755     Br  0.51571162  0.67440962  0.84352764    -0.04300
Br2756     Br  0.56208923  0.58074846  0.82355803    -0.00300
C2757       C  0.33131700  0.61334939  0.75222542     0.01100
C2758       C  0.32443796  0.59215670  0.74892291     0.03900
C2759       C  0.30894330  0.58772932  0.73312125    -0.12100
C2760       C  0.30017071  0.60453629  0.72099846     0.23200
C2761       C  0.30760778  0.62555178  0.72391286    -0.12700
C2762       C  0.32344870  0.62985547  0.73911352     0.04700
C2763       C  0.28224060  0.60086319  0.70597563     0.27100
C2764       C  0.28628771  0.59861152  0.68394382    -0.13400
C2765       C  0.26950142  0.60078233  0.66911304     0.05200
C2766       C  0.24867261  0.60569568  0.67640383    -0.09300
C2767       C  0.24434774  0.60546835  0.69859481     0.06000
C2768       C  0.26114088  0.60330548  0.71332888    -0.13700
Br2769     Br  0.29517245  0.64876486  0.70789675    -0.05800
Br2770     Br  0.33527535  0.56955846  0.76676273    -0.00200
Br2771     Br  0.27580058  0.59885949  0.63893948     0.00300
Br2772     Br  0.25564798  0.60586874  0.74361345    -0.04100
Br2773     Br  0.33447627  0.65856890  0.74182881     0.00400
Br2774     Br  0.29902835  0.55895569  0.72852958    -0.03400
Br2775     Br  0.31526060  0.59473250  0.67415246    -0.04300
Br2776     Br  0.21542610  0.60846074  0.70893912    -0.00300
C2777       C  0.39382852  0.67929511  0.75795432     0.01100
C2778       C  0.39586958  0.70076456  0.76448399     0.03900
C2779       C  0.39690992  0.71709130  0.74909270    -0.12100
C2780       C  0.39531687  0.71198973  0.72722866     0.23200
C2781       C  0.39500996  0.69048360  0.72066929    -0.12700
C2782       C  0.39443812  0.67410422  0.73602200     0.04700
C2783       C  0.39050048  0.72894811  0.71148298     0.27100
C2784       C  0.36899522  0.73349150  0.70675692    -0.13400
C2785       C  0.36397053  0.74851992  0.69093772     0.05200
C2786       C  0.38042229  0.76001729  0.68059018    -0.09300
C2787       C  0.40199136  0.75558344  0.68542011     0.06000
C2788       C  0.40700031  0.73991276  0.70077660    -0.13700
Br2789     Br  0.39341864  0.68365894  0.69061917    -0.05800
Br2790     Br  0.39596197  0.70786411  0.79454259    -0.00200
Br2791     Br  0.33450169  0.75209764  0.68238137     0.00300
Br2792     Br  0.43634025  0.73350955  0.70746226    -0.04100
Br2793     Br  0.39182093  0.64477378  0.72688506     0.00400
Br2794     Br  0.39900101  0.74654664  0.75785104    -0.03400
Br2795     Br  0.34634072  0.71922353  0.72221688    -0.04300
Br2796     Br  0.42464318  0.77128559  0.67153951    -0.00300
C2797       C  0.94172663  0.87876932  0.67175068     0.01100
C2798       C  0.95387644  0.89770155  0.67305288     0.03900
C2799       C  0.97636026  0.89683695  0.67289514    -0.12100
C2800       C  0.98683627  0.87701789  0.67128025     0.23200
C2801       C  0.97473324  0.85820080  0.66872394    -0.12700
C2802       C  0.95224289  0.85913080  0.66847791     0.04700
C2803       C  0.01050310  0.87590435  0.67326055     0.27100
C2804       C  0.02370706  0.87883978  0.65525438    -0.13400
C2805       C  0.04616196  0.87906566  0.65748976     0.05200
C2806       C  0.05560747  0.87576252  0.67780340    -0.09300
C2807       C  0.04211018  0.87154724  0.69558974     0.06000
C2808       C  0.01974618  0.87206283  0.69336286    -0.13700
Br2809     Br  0.98908151  0.83105973  0.66664847    -0.05800
Br2810     Br  0.93963452  0.92490355  0.67389204    -0.00200
Br2811     Br  0.06357761  0.88510687  0.63274470     0.00300
Br2812     Br  0.00152163  0.86766367  0.71797753    -0.04100
Br2813     Br  0.93599288  0.83340404  0.66395722     0.00400
Br2814     Br  0.99289103  0.92271387  0.67565172    -0.03400
Br2815     Br  0.01075524  0.88272806  0.62755842    -0.04300
Br2816     Br  0.05370486  0.86377877  0.72306596    -0.00300
C2817       C  0.15176533  0.69586606  0.63098649     0.01100
C2818       C  0.16358062  0.71189588  0.62041899     0.03900
C2819       C  0.15728109  0.73337585  0.62192494    -0.12100
C2820       C  0.14000845  0.73910156  0.63523090     0.23200
C2821       C  0.12741629  0.72294243  0.64473982    -0.12700
C2822       C  0.13286346  0.70130117  0.64193030     0.04700
C2823       C  0.13769901  0.76173583  0.64216299     0.27100
C2824       C  0.15279085  0.77021810  0.65656377    -0.13400
C2825       C  0.15139414  0.79157224  0.66310800     0.05200
C2826       C  0.13391075  0.80435270  0.65671696    -0.09300
C2827       C  0.11881271  0.79596077  0.64219227     0.06000
C2828       C  0.12096094  0.77478862  0.63460394    -0.13700
Br2829     Br  0.10422182  0.73045632  0.66359066    -0.05800
Br2830     Br  0.18926927  0.70455603  0.60506227    -0.00200
Br2831     Br  0.17437587  0.80342287  0.68008576     0.00300
Br2832     Br  0.10099661  0.76350564  0.61402795    -0.04100
Br2833     Br  0.11546654  0.67920076  0.65459166     0.00400
Br2834     Br  0.17358691  0.75527531  0.60750924    -0.03400
Br2835     Br  0.17523525  0.75232856  0.66796851    -0.04300
Br2836     Br  0.09475819  0.81298569  0.63349343    -0.00300
C2837       C  0.19476183  0.87124715  0.65592726     0.01100
C2838       C  0.21263020  0.86461473  0.66835778     0.03900
C2839       C  0.23309048  0.86340887  0.65918500    -0.12100
C2840       C  0.23666324  0.87063434  0.63820272     0.23200
C2841       C  0.21942085  0.87842815  0.62606887    -0.12700
C2842       C  0.19846296  0.87832010  0.63463310     0.04700
C2843       C  0.25885364  0.86995643  0.62954317     0.27100
C2844       C  0.27416574  0.88480239  0.63690873    -0.13400
C2845       C  0.29615188  0.88025126  0.63499068     0.05200
C2846       C  0.30277698  0.86095883  0.62553203    -0.09300
C2847       C  0.28757780  0.84846367  0.61455722     0.06000
C2848       C  0.26560784  0.85243276  0.61716037    -0.13700
Br2849     Br  0.22469887  0.88886896  0.59752851    -0.05800
Br2850     Br  0.21025123  0.85820067  0.69858508    -0.00200
Br2851     Br  0.31685938  0.89986655  0.64621321     0.00300
Br2852     Br  0.24496437  0.83262294  0.60572978    -0.04100
Br2853     Br  0.17516765  0.88697430  0.61641597     0.00400
Br2854     Br  0.25643313  0.85104123  0.67526567    -0.03400
Br2855     Br  0.26480230  0.91022165  0.65153314    -0.04300
Br2856     Br  0.29724376  0.82590578  0.59603172    -0.00300
C2857       C  0.12233141  0.67672605  0.94303004     0.01100
C2858       C  0.11975252  0.69595714  0.95490804     0.03900
C2859       C  0.11770674  0.69535093  0.97732889    -0.12100
C2860       C  0.12065644  0.67610841  0.98851107     0.23200
C2861       C  0.12437386  0.65714752  0.97705577    -0.12700
C2862       C  0.12422353  0.65719744  0.95447376     0.04700
C2863       C  0.12012027  0.67607757  0.01236099     0.27100
C2864       C  0.13719003  0.68511337  0.02397086    -0.13400
C2865       C  0.13562948  0.68760544  0.04629975     0.05200
C2866       C  0.11780437  0.67931788  0.05750050    -0.09300
C2867       C  0.10104359  0.66961649  0.04590165     0.06000
C2868       C  0.10197042  0.66847101  0.02338631    -0.13700
Br2869     Br  0.12985828  0.63106668  0.99253203    -0.05800
Br2870     Br  0.12052689  0.72378024  0.94143422    -0.00200
Br2871     Br  0.15748952  0.70352497  0.06117403     0.00300
Br2872     Br  0.07784224  0.65765417  0.00747186    -0.04100
Br2873     Br  0.12533059  0.63000205  0.93992548     0.00400
Br2874     Br  0.11039289  0.72097751  0.99293051    -0.03400
Br2875     Br  0.16262570  0.69441355  0.00910241    -0.04300
Br2876     Br  0.07579137  0.65984225  0.06056076    -0.00300
C2877       C  0.94685506  0.67121521  0.87848191     0.01100
C2878       C  0.96173962  0.68456054  0.88920256     0.03900
C2879       C  0.98384086  0.68165104  0.88624141    -0.12100
C2880       C  0.99144811  0.66515507  0.87300797     0.23200
C2881       C  0.97686025  0.65139406  0.86282913    -0.12700
C2882       C  0.95466869  0.65430828  0.86554347     0.04700
C2883       C  0.01491380  0.66232114  0.87037565     0.27100
C2884       C  0.02563217  0.67161112  0.85286085    -0.13400
C2885       C  0.04812404  0.67220208  0.85243806     0.05200
C2886       C  0.05997831  0.66474581  0.87012419    -0.09300
C2887       C  0.04925146  0.65406269  0.88691463     0.06000
C2888       C  0.02679517  0.65237284  0.88668475    -0.13700
Br2889     Br  0.98747514  0.62866468  0.84493933    -0.05800
Br2890     Br  0.95235356  0.70624494  0.90908009    -0.00200
Br2891     Br  0.06275019  0.68272948  0.82739054     0.00300
Br2892     Br  0.01200547  0.63737045  0.90923673    -0.04100
Br2893     Br  0.93543514  0.63522750  0.85075692     0.00400
Br2894     Br  0.00398644  0.70048832  0.90020950    -0.03400
Br2895     Br  0.00947453  0.68458350  0.83006458    -0.04300
Br2896     Br  0.06486900  0.64350691  0.91129900    -0.00300
C2897       C  0.13809734  0.63387751  0.80929763     0.01100
C2898       C  0.15793641  0.63067628  0.79900157     0.03900
C2899       C  0.15856975  0.62450000  0.77746254    -0.12100
C2900       C  0.13940107  0.62140459  0.76611539     0.23200
C2901       C  0.11972475  0.62177792  0.77707559    -0.12700
C2902       C  0.11905022  0.62790441  0.79879555     0.04700
C2903       C  0.14012182  0.62289061  0.74246303     0.27100
C2904       C  0.14078459  0.64338843  0.73322460    -0.13400
C2905       C  0.14698649  0.64589498  0.71182543     0.05200
C2906       C  0.15157500  0.62785032  0.69919276    -0.09300
C2907       C  0.14922940  0.60719613  0.70791493     0.06000
C2908       C  0.14372955  0.60473238  0.72967451    -0.13700
Br2909     Br  0.09372810  0.61612063  0.76158444    -0.05800
Br2910     Br  0.18439791  0.63654453  0.81387542    -0.00200
Br2911     Br  0.15064545  0.67427017  0.70030852     0.00300
Br2912     Br  0.14254877  0.57676389  0.74243530    -0.04100
Br2913     Br  0.09198917  0.63027127  0.81327006     0.00400
Br2914     Br  0.18564512  0.62306296  0.76266931    -0.03400
Br2915     Br  0.13478022  0.66825873  0.75049294    -0.04300
Br2916     Br  0.15562157  0.58247613  0.69069466    -0.00300
C2917       C  0.30838220  0.62300038  0.85318790     0.01100
C2918       C  0.29128596  0.61865025  0.83913927     0.03900
C2919       C  0.27014560  0.62205337  0.84575114    -0.12100
C2920       C  0.26575001  0.62735895  0.86722634     0.23200
C2921       C  0.28266611  0.62813284  0.88215496    -0.12700
C2922       C  0.30404294  0.62674552  0.87503585     0.04700
C2923       C  0.24385285  0.63457605  0.87315404     0.27100
C2924       C  0.23986345  0.65654036  0.87577522    -0.13400
C2925       C  0.21878433  0.66400615  0.87768036     0.05200
C2926       C  0.20128044  0.64984621  0.87514334    -0.09300
C2927       C  0.20538005  0.62759219  0.87380551     0.06000
C2928       C  0.22662784  0.62004706  0.87351355    -0.13700
Br2929     Br  0.27648233  0.63272867  0.91202016    -0.05800
Br2930     Br  0.29691570  0.60847674  0.81051133    -0.00200
Br2931     Br  0.21427880  0.69383360  0.88396664     0.00300
Br2932     Br  0.23237632  0.58979790  0.87226014    -0.04100
Br2933     Br  0.32705355  0.63222454  0.89479455     0.00400
Br2934     Br  0.24762765  0.62192338  0.82463337    -0.03400
Br2935     Br  0.26320348  0.67681045  0.87490745    -0.04300
Br2936     Br  0.18247816  0.60717288  0.87017588    -0.00300
C2937       C  0.11258868  0.73902473  0.81704131     0.01100
C2938       C  0.12739985  0.74652637  0.80153473     0.03900
C2939       C  0.12223864  0.76410069  0.78857472    -0.12100
C2940       C  0.10222223  0.77409429  0.79057311     0.23200
C2941       C  0.08701315  0.76608828  0.80502850    -0.12700
C2942       C  0.09217753  0.74876689  0.81840614     0.04700
C2943       C  0.09781710  0.79344606  0.77771658     0.27100
C2944       C  0.10165117  0.81383173  0.78654050    -0.13400
C2945       C  0.10336964  0.83167556  0.77299083     0.05200
C2946       C  0.10184472  0.82892007  0.75073629    -0.09300
C2947       C  0.09536556  0.80913202  0.74225146     0.06000
C2948       C  0.09317317  0.79138504  0.75578296    -0.13700
Br2949     Br  0.05917566  0.77918731  0.80648418    -0.05800
Br2950     Br  0.15561090  0.73425212  0.79861047    -0.00200
Br2951     Br  0.10939261  0.85956696  0.78456568     0.00300
Br2952     Br  0.08594817  0.76381599  0.74409327    -0.04100
Br2953     Br  0.07085379  0.73862030  0.83830347     0.00400
Br2954     Br  0.14302246  0.77520325  0.76846486    -0.03400
Br2955     Br  0.10661727  0.81693611  0.81682072    -0.04300
Br2956     Br  0.09099901  0.80614030  0.71186626    -0.00300
C2957       C  0.33315544  0.88061432  0.94713273     0.01100
C2958       C  0.32020312  0.89398139  0.95997936     0.03900
C2959       C  0.32241273  0.89384047  0.98229189    -0.12100
C2960       C  0.33833158  0.88133799  0.99193792     0.23200
C2961       C  0.35275321  0.86975336  0.97911872    -0.12700
C2962       C  0.35019405  0.86933089  0.95669695     0.04700
C2963       C  0.33841661  0.87924222  0.01556384     0.27100
C2964       C  0.34758085  0.89529219  0.02841975    -0.13400
C2965       C  0.34345237  0.89566557  0.05059253     0.05200
C2966       C  0.33112483  0.87923422  0.06008964    -0.09300
C2967       C  0.32409101  0.86200974  0.04742858     0.06000
C2968       C  0.32685467  0.86247811  0.02514224    -0.13700
Br2969     Br  0.37542847  0.85385648  0.99248126    -0.05800
Br2970     Br  0.29990757  0.91343419  0.94719687    -0.00200
Br2971     Br  0.35355181  0.91943110  0.06747370     0.00300
Br2972     Br  0.31360293  0.84088598  0.00753462    -0.04100
Br2973     Br  0.36956967  0.85263141  0.93952473     0.00400
Br2974     Br  0.30274870  0.90987985  0.99986116    -0.03400
Br2975     Br  0.36503695  0.91711093  0.01532701    -0.04300
Br2976     Br  0.31210662  0.83704646  0.06076002    -0.00300
C2977       C  0.17231111  0.74533322  0.88626006     0.01100
C2978       C  0.18434166  0.74257100  0.90511740     0.03900
C2979       C  0.20087537  0.75704087  0.91011048    -0.12100
C2980       C  0.20483206  0.77469774  0.89670635     0.23200
C2981       C  0.19179213  0.77827429  0.87871597    -0.12700
C2982       C  0.17575288  0.76349377  0.87335113     0.04700
C2983       C  0.22381518  0.78851185  0.90007095     0.27100
C2984       C  0.22184009  0.80841957  0.91027499    -0.13400
C2985       C  0.23856201  0.82353935  0.90897352     0.05200
C2986       C  0.25770951  0.81831469  0.89797555    -0.09300
C2987       C  0.26070243  0.79689841  0.89120350     0.06000
C2988       C  0.24348763  0.78250538  0.89114351    -0.13700
Br2989     Br  0.19664408  0.80299631  0.86084860    -0.05800
Br2990     Br  0.17909463  0.71828647  0.92337442    -0.00200
Br2991     Br  0.23420595  0.85129258  0.92161763     0.00300
Br2992     Br  0.24629106  0.75513825  0.87713701    -0.04100
Br2993     Br  0.15857618  0.76813889  0.84816895     0.00400
Br2994     Br  0.21895884  0.75211805  0.93454083    -0.03400
Br2995     Br  0.19559009  0.81515467  0.92492698    -0.04300
Br2996     Br  0.28843544  0.78667772  0.88241170    -0.00300
C2997       C  0.25192852  0.88852131  0.83391029     0.01100
C2998       C  0.25734026  0.89724035  0.81381069     0.03900
C2999       C  0.24127774  0.90107352  0.79858339    -0.12100
C3000       C  0.21976457  0.89684449  0.80370203     0.23200
C3001       C  0.21421615  0.89010518  0.82446063    -0.12700
C3002       C  0.23030335  0.88526278  0.83932210     0.04700
C3003       C  0.20396434  0.89412139  0.78632590     0.27100
C3004       C  0.19119317  0.91115473  0.77914701    -0.13400
C3005       C  0.17617919  0.90776588  0.76263356     0.05200
C3006       C  0.17332420  0.88706547  0.75409475    -0.09300
C3007       C  0.18527694  0.86985721  0.76244839     0.06000
C3008       C  0.20116884  0.87357444  0.77771693    -0.13700
Br3009     Br  0.18458272  0.88526944  0.83156311    -0.05800
Br3010     Br  0.28683367  0.90278538  0.80667074    -0.00200
Br3011     Br  0.16016376  0.93152035  0.75145148     0.00300
Br3012     Br  0.21927995  0.85034252  0.78691902    -0.04100
Br3013     Br  0.22281732  0.87094701  0.86560180     0.00400
Br3014     Br  0.24882316  0.90992831  0.77000263    -0.03400
Br3015     Br  0.19426205  0.93887486  0.79215509    -0.04300
Br3016     Br  0.17880278  0.84065895  0.75460807    -0.00300
C3017       C  0.35625488  0.80614725  0.87597126     0.01100
C3018       C  0.35150794  0.79290271  0.89353937     0.03900
C3019       C  0.35683714  0.77106158  0.89285951    -0.12100
C3020       C  0.36659969  0.76244123  0.87443250     0.23200
C3021       C  0.37321570  0.77621906  0.85782215    -0.12700
C3022       C  0.36810740  0.79804938  0.85866334     0.04700
C3023       C  0.36670759  0.73894958  0.87073637     0.27100
C3024       C  0.38577809  0.72706638  0.87204072    -0.13400
C3025       C  0.38633754  0.70577712  0.86460117     0.05200
C3026       C  0.36761748  0.69616144  0.85648973    -0.09300
C3027       C  0.34816567  0.70752137  0.85699704     0.06000
C3028       C  0.34781033  0.72890521  0.86365458    -0.13700
Br3029     Br  0.38751314  0.76489152  0.83294735    -0.05800
Br3030     Br  0.33619716  0.80445434  0.91765975    -0.00200
Br3031     Br  0.41301973  0.69053989  0.86379236     0.00300
Br3032     Br  0.32155122  0.74480660  0.86157624    -0.04100
Br3033     Br  0.37569128  0.81669077  0.83524983     0.00400
Br3034     Br  0.34931435  0.75258257  0.91633885    -0.03400
Br3035     Br  0.41123164  0.74040987  0.88311344    -0.04300
Br3036     Br  0.32178340  0.69386312  0.84826303    -0.00300
C3037       C  0.34825950  0.87102779  0.80523692     0.01100
C3038       C  0.33611855  0.86328633  0.78735291     0.03900
C3039       C  0.34474168  0.86385284  0.76664281    -0.12100
C3040       C  0.36540600  0.87179383  0.76312125     0.23200
C3041       C  0.37724647  0.88031602  0.78016647    -0.12700
C3042       C  0.36867240  0.88039462  0.80109752     0.04700
C3043       C  0.37427669  0.87015391  0.74119835     0.27100
C3044       C  0.38339701  0.85068474  0.73475619    -0.13400
C3045       C  0.38322890  0.84493281  0.71303110     0.05200
C3046       C  0.37420562  0.85878319  0.69772312    -0.09300
C3047       C  0.36833028  0.87959149  0.70386216     0.06000
C3048       C  0.36817072  0.88522577  0.72566869    -0.13700
Br3049     Br  0.40548173  0.89144229  0.77457053    -0.05800
Br3050     Br  0.30740030  0.85146875  0.78949135    -0.00200
Br3051     Br  0.39432091  0.81758220  0.70438560     0.00300
Br3052     Br  0.35685475  0.91237367  0.73468496    -0.04100
Br3053     Br  0.38549941  0.89378266  0.82330718     0.00400
Br3054     Br  0.32831252  0.85307767  0.74256074    -0.03400
Br3055     Br  0.39364871  0.83092104  0.75605059    -0.04300
Br3056     Br  0.35866984  0.89966161  0.68284494    -0.00300
C3057       C  0.37900101  0.17490119  0.55500748     0.01100
C3058       C  0.35974381  0.16865835  0.54504669     0.03900
C3059       C  0.35826386  0.16813150  0.52248274    -0.12100
C3060       C  0.37603064  0.17378004  0.50973906     0.23200
C3061       C  0.39553441  0.17907525  0.51974258    -0.12700
C3062       C  0.39707089  0.17940622  0.54224537     0.04700
C3063       C  0.37427740  0.17474971  0.48586966     0.27100
C3064       C  0.37996136  0.15705263  0.47321572    -0.13400
C3065       C  0.38053746  0.15872159  0.45065438     0.05200
C3066       C  0.37546909  0.17829812  0.44044122    -0.09300
C3067       C  0.36840169  0.19558779  0.45328738     0.06000
C3068       C  0.36790668  0.19379459  0.47580229    -0.13700
Br3069     Br  0.42003764  0.18647137  0.50250340    -0.05800
Br3070     Br  0.33517517  0.16163326  0.56231736    -0.00200
Br3071     Br  0.38923494  0.13417210  0.43423362     0.00300
Br3072     Br  0.35854935  0.21752733  0.49311347    -0.04100
Br3073     Br  0.42420621  0.18531969  0.55570517     0.00400
Br3074     Br  0.33175832  0.16028245  0.50890493    -0.03400
Br3075     Br  0.38725446  0.13055545  0.48709431    -0.04300
Br3076     Br  0.35827711  0.22164412  0.44033201    -0.00300
C3077       C  0.17826672  0.44383587  0.62294235     0.01100
C3078       C  0.16816579  0.45172158  0.64155734     0.03900
C3079       C  0.16562302  0.47389161  0.64444217    -0.12100
C3080       C  0.17318045  0.48821444  0.62878750     0.23200
C3081       C  0.18305390  0.48034789  0.61014364    -0.12700
C3082       C  0.18554556  0.45825579  0.60718522     0.04700
C3083       C  0.17168685  0.51165174  0.63196095     0.27100
C3084       C  0.15525856  0.52333315  0.62201067    -0.13400
C3085       C  0.15637402  0.54579622  0.62112138     0.05200
C3086       C  0.17374558  0.55662325  0.63067203    -0.09300
C3087       C  0.18887148  0.54490306  0.64262930     0.06000
C3088       C  0.18809767  0.52248348  0.64288128    -0.13700
Br3089     Br  0.19349909  0.50004202  0.58876633    -0.05800
Br3090     Br  0.15887885  0.43234259  0.66371521    -0.00200
Br3091     Br  0.13491509  0.56137103  0.60549965     0.00300
Br3092     Br  0.21014283  0.50648816  0.65727817    -0.04100
Br3093     Br  0.19837554  0.44781098  0.58112358     0.00400
Br3094     Br  0.15221318  0.48480044  0.66997010    -0.03400
Br3095     Br  0.13179507  0.50829612  0.60881989    -0.04300
Br3096     Br  0.21040275  0.55946326  0.65926585    -0.00300
C3097       C  0.17804518  0.37985313  0.43812328     0.01100
C3098       C  0.18606567  0.39664443  0.45093842     0.03900
C3099       C  0.18366964  0.39594824  0.47331956    -0.12100
C3100       C  0.17272991  0.37881042  0.48302490     0.23200
C3101       C  0.16384643  0.36254830  0.47024359    -0.12700
C3102       C  0.16675252  0.36286246  0.44789827     0.04700
C3103       C  0.17247171  0.37690132  0.50671974     0.27100
C3104       C  0.18756588  0.36366975  0.51682306    -0.13400
C3105       C  0.18880482  0.36304842  0.53924679     0.05200
C3106       C  0.17527461  0.37604824  0.55174620    -0.09300
C3107       C  0.15979669  0.38889107  0.54167635     0.06000
C3108       C  0.15820548  0.38908545  0.51918754    -0.13700
Br3109     Br  0.14820171  0.33953274  0.48360183    -0.05800
Br3110     Br  0.19972286  0.42109317  0.43793394    -0.00200
Br3111     Br  0.20913434  0.34425067  0.55275568     0.00300
Br3112     Br  0.13698313  0.40653298  0.50537778    -0.04100
Br3113     Br  0.15653868  0.33911031  0.43106668     0.00400
Br3114     Br  0.19593780  0.41818465  0.49087505    -0.03400
Br3115     Br  0.20719879  0.34701626  0.49982433    -0.04300
Br3116     Br  0.14207282  0.40759400  0.55856559    -0.00300
C3117       C  0.24961012  0.32524662  0.59800594     0.01100
C3118       C  0.24655666  0.30290338  0.59977540     0.03900
C3119       C  0.26398734  0.28899207  0.59755443    -0.12100
C3120       C  0.28433493  0.29713495  0.59252224     0.23200
C3121       C  0.28671673  0.31882836  0.58727528    -0.12700
C3122       C  0.26945567  0.33299560  0.59008744     0.04700
C3123       C  0.30333255  0.28363440  0.59661798     0.27100
C3124       C  0.31233840  0.28383401  0.61725686    -0.13400
C3125       C  0.32709912  0.26816612  0.62320913     0.05200
C3126       C  0.33319602  0.25234182  0.60844279    -0.09300
C3127       C  0.32553713  0.25305891  0.58725754     0.06000
C3128       C  0.31060018  0.26879997  0.58132501    -0.13700
Br3129     Br  0.31419152  0.32912488  0.57773137    -0.05800
Br3130     Br  0.21855484  0.29102676  0.60521552    -0.00200
Br3131     Br  0.33867718  0.26818001  0.65188046     0.00300
Br3132     Br  0.29954782  0.26979266  0.55261261    -0.04100
Br3133     Br  0.27413491  0.36295595  0.58447262     0.00400
Br3134     Br  0.26049330  0.25886718  0.60323275    -0.03400
Br3135     Br  0.30380139  0.30510883  0.63778148    -0.04300
Br3136     Br  0.33423373  0.23157712  0.56698116    -0.00300
C3137       C  0.37401473  0.44469750  0.82927636     0.01100
C3138       C  0.36131218  0.45733849  0.81547786     0.03900
C3139       C  0.36211378  0.47978063  0.81670851    -0.12100
C3140       C  0.37537449  0.48985096  0.83186882     0.23200
C3141       C  0.38695571  0.47735919  0.84656099    -0.12700
C3142       C  0.38637392  0.45486783  0.84525851     0.04700
C3143       C  0.37807005  0.51349999  0.83138842     0.27100
C3144       C  0.39571922  0.52256168  0.82064085    -0.13400
C3145       C  0.39753068  0.54488202  0.81857738     0.05200
C3146       C  0.38169002  0.55833910  0.82727450    -0.09300
C3147       C  0.36428052  0.54927665  0.83846610     0.06000
C3148       C  0.36256409  0.52693526  0.84061892    -0.13700
Br3149     Br  0.40412773  0.49128843  0.86806315    -0.05800
Br3150     Br  0.34234977  0.44409492  0.79498535    -0.00200
Br3151     Br  0.42198153  0.55700275  0.80408112     0.00300
Br3152     Br  0.33873404  0.51460425  0.85583857    -0.04100
Br3153     Br  0.40374289  0.43830069  0.86453106     0.00400
Br3154     Br  0.34547847  0.49689480  0.79716550    -0.03400
Br3155     Br  0.41729152  0.50427233  0.80843096    -0.04300
Br3156     Br  0.34189456  0.56729129  0.84953060    -0.00300
C3157       C  0.25165917  0.38668106  0.66871128     0.01100
C3158       C  0.26686906  0.37138312  0.67479825     0.03900
C3159       C  0.28079165  0.37557129  0.69176854    -0.12100
C3160       C  0.28067457  0.39576756  0.70169578     0.23200
C3161       C  0.26658296  0.41175069  0.69450799    -0.12700
C3162       C  0.25162938  0.40701506  0.67833555     0.04700
C3163       C  0.29481861  0.39925715  0.72030332     0.27100
C3164       C  0.28669647  0.39611251  0.74105072    -0.13400
C3165       C  0.30079169  0.39314856  0.75826616     0.05200
C3166       C  0.32308756  0.39255860  0.75464917    -0.09300
C3167       C  0.33114990  0.39700570  0.73393798     0.06000
C3168       C  0.31696749  0.40115266  0.71703551    -0.13700
Br3169     Br  0.26750497  0.43975143  0.70722788    -0.05800
Br3170     Br  0.26879292  0.34470301  0.65951994    -0.00200
Br3171     Br  0.28924551  0.38902081  0.78656151     0.00300
Br3172     Br  0.32768130  0.40746606  0.68875635    -0.04100
Br3173     Br  0.23029828  0.42769752  0.67040775     0.00400
Br3174     Br  0.29915094  0.35308466  0.70217857    -0.03400
Br3175     Br  0.25621156  0.39404212  0.74552033    -0.04300
Br3176     Br  0.36120998  0.39411467  0.72745669    -0.00300
C3177       C  0.38577232  0.32658832  0.75325700     0.01100
C3178       C  0.40744586  0.32215493  0.74865995     0.03900
C3179       C  0.41270128  0.30723870  0.73257429    -0.12100
C3180       C  0.39639101  0.29645057  0.72142022     0.23200
C3181       C  0.37484008  0.30093540  0.72590750    -0.12700
C3182       C  0.36954091  0.31638440  0.74122822     0.04700
C3183       C  0.40138041  0.27996354  0.70516157     0.27100
C3184       C  0.40191228  0.28547426  0.68331209    -0.13400
C3185       C  0.40121285  0.26940104  0.66758872     0.05200
C3186       C  0.39901489  0.24785560  0.67375960    -0.09300
C3187       C  0.40023785  0.24231145  0.69563787     0.06000
C3188       C  0.40177728  0.25835529  0.71127646    -0.13700
Br3189     Br  0.35243790  0.28533223  0.71139927    -0.05800
Br3190     Br  0.42997140  0.33561547  0.76484032    -0.00200
Br3191     Br  0.40054143  0.27717465  0.63772629     0.00300
Br3192     Br  0.40218395  0.25093517  0.74124075    -0.04100
Br3193     Br  0.33986041  0.32433532  0.74455135     0.00400
Br3194     Br  0.44213209  0.30102004  0.72602785    -0.03400
Br3195     Br  0.40105104  0.31510775  0.67504456    -0.04300
Br3196     Br  0.39809915  0.21279044  0.70435556    -0.00300
C3197       C  0.12548819  0.32360346  0.05214704     0.01100
C3198       C  0.10614819  0.32331462  0.04050010     0.03900
C3199       C  0.10633816  0.32591759  0.01808921    -0.12100
C3200       C  0.12584795  0.32912206  0.00719649     0.23200
C3201       C  0.14510959  0.32986548  0.01894262    -0.12700
C3202       C  0.14495026  0.32670876  0.04125033     0.04700
C3203       C  0.12647519  0.32931783  0.98332800     0.27100
C3204       C  0.13444300  0.31136646  0.97242972    -0.13400
C3205       C  0.13624607  0.31158087  0.95006976     0.05200
C3206       C  0.12739344  0.32847768  0.93797718    -0.09300
C3207       C  0.11940867  0.34659087  0.94885700     0.06000
C3208       C  0.11957978  0.34722655  0.97148350    -0.13700
Br3209     Br  0.17190030  0.33434311  0.00427810    -0.05800
Br3210     Br  0.07932008  0.31913207  0.05519927    -0.00200
Br3211     Br  0.15253278  0.28928612  0.93637911     0.00300
Br3212     Br  0.10998169  0.37242372  0.98633120    -0.04100
Br3213     Br  0.17156336  0.32444224  0.05660041     0.00400
Br3214     Br  0.07993705  0.32413950  0.00219981    -0.03400
Br3215     Br  0.14197929  0.28585117  0.98805370    -0.04300
Br3216     Br  0.10740152  0.37018435  0.93314505    -0.00300
C3217       C  0.30348653  0.37574077  0.85518131     0.01100
C3218       C  0.29416271  0.35970220  0.86785524     0.03900
C3219       C  0.27183664  0.35884058  0.87042388    -0.12100
C3220       C  0.25889949  0.37525774  0.86198076     0.23200
C3221       C  0.26876979  0.39323129  0.85248537    -0.12700
C3222       C  0.29103038  0.39328474  0.84881212     0.04700
C3223       C  0.23521482  0.37232581  0.86116021     0.27100
C3224       C  0.22547644  0.36648684  0.84164875    -0.13400
C3225       C  0.20400639  0.35991492  0.84129340     0.05200
C3226       C  0.19231372  0.35816748  0.86049821    -0.09300
C3227       C  0.20140035  0.36548126  0.87976500     0.06000
C3228       C  0.22273171  0.37293904  0.88001045    -0.13700
Br3229     Br  0.25164218  0.41706175  0.84335867    -0.05800
Br3230     Br  0.31219282  0.33931542  0.88204239    -0.00200
Br3231     Br  0.19057197  0.35276194  0.81437415     0.00300
Br3232     Br  0.23526230  0.38300557  0.90629749    -0.04100
Br3233     Br  0.30471288  0.41721014  0.83510533     0.00400
Br3234     Br  0.25903134  0.33403618  0.88359643    -0.03400
Br3235     Br  0.24182828  0.36579342  0.81547541    -0.04300
Br3236     Br  0.18527127  0.36360183  0.90597578    -0.00300
C3237       C  0.15562173  0.37205168  0.69177056     0.01100
C3238       C  0.13338714  0.37423702  0.69551922     0.03900
C3239       C  0.12536287  0.37372188  0.71662407    -0.12100
C3240       C  0.13928527  0.37043098  0.73398070     0.23200
C3241       C  0.16147830  0.36979390  0.73043838    -0.12700
C3242       C  0.16965796  0.37142470  0.70955742     0.04700
C3243       C  0.13074951  0.36507637  0.75554352     0.27100
C3244       C  0.13121460  0.38015225  0.77230266    -0.13400
C3245       C  0.12762829  0.37352914  0.79360273     0.05200
C3246       C  0.12288057  0.35193891  0.79800496    -0.09300
C3247       C  0.11962844  0.33764420  0.78083089     0.06000
C3248       C  0.12429139  0.34395198  0.75978810    -0.13700
Br3249     Br  0.18069410  0.36503814  0.75413471    -0.05800
Br3250     Br  0.11342147  0.37652049  0.67212878    -0.00200
Br3251     Br  0.13138126  0.39350785  0.81673730     0.00300
Br3252     Br  0.12408552  0.32300448  0.73709540    -0.04100
Br3253     Br  0.20026225  0.37356674  0.70579986     0.00400
Br3254     Br  0.09512329  0.37628185  0.72194245    -0.03400
Br3255     Br  0.13840017  0.40943703  0.76610234    -0.04300
Br3256     Br  0.10962922  0.30896609  0.78625933    -0.00300
C3257       C  0.32921382  0.12069509  0.05449305     0.01100
C3258       C  0.32361713  0.10222747  0.04265408     0.03900
C3259       C  0.32381366  0.10263157  0.02009293    -0.12100
C3260       C  0.33005027  0.12124925  0.00908813     0.23200
C3261       C  0.33624289  0.13946870  0.02075539    -0.12700
C3262       C  0.33545316  0.13938373  0.04331391     0.04700
C3263       C  0.32853385  0.12216518  0.98528148     0.27100
C3264       C  0.34552720  0.11512580  0.97232088    -0.13400
C3265       C  0.34382823  0.11588276  0.94979620     0.05200
C3266       C  0.32485542  0.12338432  0.93999691    -0.09300
C3267       C  0.30763276  0.12989686  0.95321592     0.06000
C3268       C  0.30966167  0.12961773  0.97565900    -0.13700
Br3269     Br  0.34532294  0.16474535  0.00558746    -0.05800
Br3270     Br  0.31597698  0.07604347  0.05703855    -0.00200
Br3271     Br  0.36700940  0.10490428  0.93265723     0.00300
Br3272     Br  0.28637275  0.13921195  0.99350461    -0.04100
Br3273     Br  0.34107665  0.16564270  0.05854614     0.00400
Br3274     Br  0.31501294  0.07780116  0.00403854    -0.03400
Br3275     Br  0.37086539  0.10378278  0.98563662    -0.04300
Br3276     Br  0.28090174  0.13919935  0.94107604    -0.00300
C3277       C  0.32270136  0.05587154  0.87686449     0.01100
C3278       C  0.30980393  0.04448041  0.89153276     0.03900
C3279       C  0.31100296  0.02211676  0.89257958    -0.12100
C3280       C  0.32540416  0.01104958  0.87935232     0.23200
C3281       C  0.33904922  0.02239437  0.86548414    -0.12700
C3282       C  0.33766585  0.04478008  0.86414645     0.04700
C3283       C  0.32518870  0.98741245  0.87914711     0.27100
C3284       C  0.33955813  0.97577642  0.89193229    -0.13400
C3285       C  0.33873531  0.95331153  0.89205768     0.05200
C3286       C  0.32318535  0.94251592  0.87975809    -0.09300
C3287       C  0.30864099  0.95425390  0.86726262     0.06000
C3288       C  0.30989637  0.97661664  0.86665207    -0.13700
Br3289     Br  0.35923948  0.00705576  0.84798804    -0.05800
Br3290     Br  0.29114552  0.05945884  0.91102573    -0.00200
Br3291     Br  0.35797178  0.93744284  0.91015442     0.00300
Br3292     Br  0.29048400  0.99260583  0.84886004    -0.04100
Br3293     Br  0.35554873  0.05994289  0.84407753     0.00400
Br3294     Br  0.29267077  0.00645178  0.91189411    -0.03400
Br3295     Br  0.35980061  0.99075475  0.90975091    -0.04300
Br3296     Br  0.28686105  0.93976704  0.85100275    -0.00300
C3297       C  0.25696130  0.17712429  0.87909248     0.01100
C3298       C  0.25892252  0.19020629  0.89736436     0.03900
C3299       C  0.24302095  0.20539873  0.90207615    -0.12100
C3300       C  0.22603713  0.20866033  0.88767046     0.23200
C3301       C  0.22424587  0.19578377  0.86928528    -0.12700
C3302       C  0.23923431  0.17963637  0.86540687     0.04700
C3303       C  0.21094050  0.22667262  0.89042702     0.27100
C3304       C  0.18975507  0.22271531  0.89689784    -0.13400
C3305       C  0.17387258  0.23826845  0.89358336     0.05200
C3306       C  0.17940393  0.25828901  0.88455864    -0.09300
C3307       C  0.20120419  0.26291253  0.88034146     0.06000
C3308       C  0.21680857  0.24705061  0.88300949    -0.13700
Br3309     Br  0.20171005  0.20091032  0.84879456    -0.05800
Br3310     Br  0.28434135  0.18897703  0.91463660    -0.00200
Br3311     Br  0.14442840  0.23069734  0.89900928     0.00300
Br3312     Br  0.24610943  0.25268563  0.87495679    -0.04100
Br3313     Br  0.23506682  0.16072928  0.84142883     0.00400
Br3314     Br  0.24457914  0.22205045  0.92795593    -0.03400
Br3315     Br  0.18244864  0.19526628  0.90890009    -0.04300
Br3316     Br  0.21007554  0.29075219  0.87024734    -0.00300
C3317       C  0.35699056  0.19288664  0.86500893     0.01100
C3318       C  0.35658275  0.20368265  0.88479279     0.03900
C3319       C  0.36167361  0.22565567  0.88571783    -0.12100
C3320       C  0.36823318  0.23654849  0.86706260     0.23200
C3321       C  0.37132843  0.22496480  0.84799381    -0.12700
C3322       C  0.36501318  0.20343615  0.84676323     0.04700
C3323       C  0.36694749  0.26028996  0.86572814     0.27100
C3324       C  0.34782499  0.26935585  0.85833733    -0.13400
C3325       C  0.34704893  0.29103177  0.85264626     0.05200
C3326       C  0.36546048  0.30428359  0.85466881    -0.09300
C3327       C  0.38391204  0.29560158  0.86451011     0.06000
C3328       C  0.38478062  0.27353590  0.86951693    -0.13700
Br3329     Br  0.38240994  0.23927934  0.82298704    -0.05800
Br3330     Br  0.34727919  0.18877951  0.91013157    -0.00200
Br3331     Br  0.32021260  0.30193206  0.84185495     0.00300
Br3332     Br  0.41058201  0.26103534  0.88065553    -0.04100
Br3333     Br  0.36558282  0.18898225  0.81955685     0.00400
Br3334     Br  0.35771391  0.24133400  0.91190417    -0.03400
Br3335     Br  0.32274959  0.25149450  0.85496000    -0.04300
Br3336     Br  0.40826610  0.31331338  0.87072037    -0.00300
C3337       C  0.35914347  0.11840465  0.80331452     0.01100
C3338       C  0.37737703  0.13007966  0.79728432     0.03900
C3339       C  0.38146191  0.13410785  0.77547125    -0.12100
C3340       C  0.36860979  0.12442792  0.75961327     0.23200
C3341       C  0.35307514  0.10925968  0.76582011    -0.12700
C3342       C  0.34783605  0.10683450  0.78762028     0.04700
C3343       C  0.36866543  0.13282380  0.73724188     0.27100
C3344       C  0.35181134  0.14618387  0.73065802    -0.13400
C3345       C  0.35129970  0.15431310  0.70971549     0.05200
C3346       C  0.36852774  0.15061052  0.69548369    -0.09300
C3347       C  0.38557720  0.13745682  0.70215346     0.06000
C3348       C  0.38527416  0.12804708  0.72273200    -0.13700
Br3349     Br  0.33745692  0.09367221  0.74426375    -0.05800
Br3350     Br  0.39591326  0.14131662  0.81912449    -0.00200
Br3351     Br  0.32620489  0.16981044  0.70050445     0.00300
Br3352     Br  0.40753975  0.10860213  0.73112612    -0.04100
Br3353     Br  0.32406569  0.08907105  0.79600558     0.00400
Br3354     Br  0.40271634  0.15499681  0.76761265    -0.03400
Br3355     Br  0.32955560  0.15403157  0.75065640    -0.04300
Br3356     Br  0.41008748  0.13357897  0.68388125    -0.00300
C3357       C  0.12171399  0.05872111  0.67684901     0.01100
C3358       C  0.12019968  0.04798492  0.65685853     0.03900
C3359       C  0.12175211  0.02551409  0.65580010    -0.12100
C3360       C  0.12336318  0.01333407  0.67461653     0.23200
C3361       C  0.12417803  0.02367098  0.69454375    -0.12700
C3362       C  0.12377293  0.04613056  0.69577940     0.04700
C3363       C  0.12294841  0.98954638  0.67382445     0.27100
C3364       C  0.10353070  0.97858879  0.67723777    -0.13400
C3365       C  0.10336315  0.95621619  0.67935190     0.05200
C3366       C  0.12255320  0.94461526  0.67775988    -0.09300
C3367       C  0.14186502  0.95543906  0.67353538     0.06000
C3368       C  0.14207217  0.97788205  0.67158200    -0.13700
Br3369     Br  0.12540994  0.00666413  0.72036292    -0.05800
Br3370     Br  0.11368154  0.06324435  0.63082698    -0.00200
Br3371     Br  0.07693379  0.94145103  0.68535527     0.00300
Br3372     Br  0.16859012  0.99280602  0.66662463    -0.04100
Br3373     Br  0.12614907  0.05868771  0.72400190     0.00400
Br3374     Br  0.12132385  0.01111604  0.62852411    -0.03400
Br3375     Br  0.07726857  0.99442894  0.67987814    -0.04300
Br3376     Br  0.16808938  0.93950653  0.67136635    -0.00300
C3377       C  0.13190534  0.19625480  0.63982842     0.01100
C3378       C  0.11295189  0.20724009  0.63476351     0.03900
C3379       C  0.11399435  0.22836141  0.62685557    -0.12100
C3380       C  0.13392137  0.23887315  0.62511819     0.23200
C3381       C  0.15287181  0.22734583  0.62892714    -0.12700
C3382       C  0.15183615  0.20602631  0.63583864     0.04700
C3383       C  0.13525147  0.26254370  0.62277182     0.27100
C3384       C  0.14337381  0.27187016  0.60385552    -0.13400
C3385       C  0.15032383  0.29332462  0.60393788     0.05200
C3386       C  0.14846933  0.30564116  0.62267696    -0.09300
C3387       C  0.13808182  0.29707048  0.64072089     0.06000
C3388       C  0.13177773  0.27550324  0.64092359    -0.13700
Br3389     Br  0.18035486  0.24132315  0.62671516    -0.05800
Br3390     Br  0.08569635  0.19417456  0.64075853    -0.00200
Br3391     Br  0.16359054  0.30559675  0.57894865     0.00300
Br3392     Br  0.12035172  0.26326753  0.66688613    -0.04100
Br3393     Br  0.17790729  0.19051284  0.64123852     0.00400
Br3394     Br  0.08820473  0.24345093  0.61963427    -0.03400
Br3395     Br  0.14635527  0.25478288  0.57841164    -0.04300
Br3396     Br  0.13387615  0.31462459  0.66574257    -0.00300
C3397       C  0.19719282  0.13254139  0.65657643     0.01100
C3398       C  0.20234966  0.13216404  0.63448217     0.03900
C3399       C  0.22378881  0.13421928  0.62781154    -0.12100
C3400       C  0.24015698  0.13701252  0.64297691     0.23200
C3401       C  0.23530031  0.13647969  0.66493144    -0.12700
C3402       C  0.21403997  0.13383663  0.67174859     0.04700
C3403       C  0.26208769  0.14290603  0.63599769     0.27100
C3404       C  0.27865540  0.12771449  0.63603311    -0.13400
C3405       C  0.29998117  0.13422812  0.63256994     0.05200
C3406       C  0.30464762  0.15591581  0.62837260    -0.09300
C3407       C  0.28766882  0.17064384  0.62636578     0.06000
C3408       C  0.26660609  0.16430975  0.63083818    -0.13700
Br3409     Br  0.25774458  0.14109134  0.68570461    -0.05800
Br3410     Br  0.18031796  0.13108214  0.61289881    -0.00200
Br3411     Br  0.32271901  0.11375841  0.63577855     0.00300
Br3412     Br  0.24412070  0.18537909  0.63167954    -0.04100
Br3413     Br  0.20850586  0.13232608  0.70213463     0.00400
Br3414     Br  0.23083634  0.13484017  0.59775961    -0.03400
Br3415     Br  0.27211769  0.09826289  0.64225077    -0.04300
Br3416     Br  0.29316402  0.19981796  0.61787014    -0.00300
C3417       C  0.11042494  0.25474302  0.82013623     0.01100
C3418       C  0.08872052  0.25439385  0.81419156     0.03900
C3419       C  0.08195746  0.24087027  0.79758160    -0.12100
C3420       C  0.09692343  0.22779797  0.78716198     0.23200
C3421       C  0.11852555  0.22785493  0.79350093    -0.12700
C3422       C  0.12517916  0.24104247  0.81024859     0.04700
C3423       C  0.09039497  0.21324037  0.76992447     0.27100
C3424       C  0.08652021  0.19171861  0.77490419    -0.13400
C3425       C  0.08850460  0.17614334  0.75892926     0.05200
C3426       C  0.09499655  0.18233421  0.73813729    -0.09300
C3427       C  0.09494989  0.20419367  0.73252262     0.06000
C3428       C  0.09280660  0.21969826  0.74854810    -0.13700
Br3429     Br  0.13921106  0.21032547  0.77879554    -0.05800
Br3430     Br  0.06851945  0.27285941  0.82826475    -0.00200
Br3431     Br  0.08449990  0.14653578  0.76665051     0.00300
Br3432     Br  0.09563541  0.24962766  0.74179085    -0.04100
Br3433     Br  0.15442387  0.23991094  0.82015550     0.00400
Br3434     Br  0.05254043  0.24061628  0.78853824    -0.03400
Br3435     Br  0.08138584  0.18352740  0.80423154    -0.04300
Br3436     Br  0.09871314  0.21297116  0.70313317    -0.00300
C3437       C  0.25539589  0.11347816  0.81643033     0.01100
C3438       C  0.24015005  0.09720535  0.82082854     0.03900
C3439       C  0.22150453  0.09531503  0.80823738    -0.12100
C3440       C  0.21840422  0.10885938  0.79059397     0.23200
C3441       C  0.23429580  0.12372071  0.78497586    -0.12700
C3442       C  0.25247732  0.12640929  0.79791129     0.04700
C3443       C  0.19803097  0.10881359  0.77838235     0.27100
C3444       C  0.19610476  0.09663021  0.75952251    -0.13400
C3445       C  0.17929649  0.10068217  0.74512611     0.05200
C3446       C  0.16448232  0.11698250  0.74953908    -0.09300
C3447       C  0.16556824  0.12814045  0.76905836     0.06000
C3448       C  0.18216799  0.12388550  0.78358236    -0.13700
Br3449     Br  0.23051145  0.14112533  0.75968809    -0.05800
Br3450     Br  0.24480374  0.07676449  0.84346556    -0.00200
Br3451     Br  0.17771297  0.08539057  0.71839161     0.00300
Br3452     Br  0.18420515  0.13985343  0.80989730    -0.04100
Br3453     Br  0.27185406  0.14940963  0.79044162     0.00400
Br3454     Br  0.19977698  0.07459180  0.81531952    -0.03400
Br3455     Br  0.21751712  0.07569174  0.75265631    -0.04300
Br3456     Br  0.14516073  0.15031936  0.77515169    -0.00300
C3457       C  0.55824043  0.17662146  0.61869106     0.01100
C3458       C  0.54465484  0.18496913  0.60275169     0.03900
C3459       C  0.52250938  0.18112845  0.60376175    -0.12100
C3460       C  0.51378063  0.16950349  0.62099387     0.23200
C3461       C  0.52727907  0.16133525  0.63699105    -0.12700
C3462       C  0.54942611  0.16500864  0.63594776     0.04700
C3463       C  0.49027152  0.16862716  0.62383378     0.27100
C3464       C  0.48033617  0.18441959  0.63630586    -0.13400
C3465       C  0.45798576  0.18519757  0.63765440     0.05200
C3466       C  0.44531778  0.17060483  0.62595016    -0.09300
C3467       C  0.45529405  0.15410718  0.61427172     0.06000
C3468       C  0.47780043  0.15299211  0.61344126    -0.13700
Br3469     Br  0.51519315  0.14565129  0.66066038    -0.05800
Br3470     Br  0.55618356  0.20181094  0.57956921    -0.00200
Br3471     Br  0.44481483  0.20651048  0.65559020     0.00300
Br3472     Br  0.49168122  0.13064669  0.59747616    -0.04100
Br3473     Br  0.56736387  0.15579488  0.65926063     0.00400
Br3474     Br  0.50393859  0.19200279  0.58168778    -0.03400
Br3475     Br  0.49748430  0.20570997  0.65072331    -0.04300
Br3476     Br  0.43833181  0.13416683  0.59798839    -0.00300
C3477       C  0.62610655  0.16578171  0.55088338     0.01100
C3478       C  0.60897892  0.15560064  0.54035535     0.03900
C3479       C  0.60891604  0.15405263  0.51785430    -0.12100
C3480       C  0.62605116  0.16257218  0.50590306     0.23200
C3481       C  0.64354515  0.17197863  0.51655065    -0.12700
C3482       C  0.64344367  0.17381991  0.53895487     0.04700
C3483       C  0.62470676  0.16419485  0.48222155     0.27100
C3484       C  0.63275330  0.14790240  0.46900655    -0.13400
C3485       C  0.63406492  0.15094502  0.44666158     0.05200
C3486       C  0.62659680  0.17014019  0.43733914    -0.09300
C3487       C  0.61728867  0.18590179  0.45073280     0.06000
C3488       C  0.61667859  0.18300602  0.47302385    -0.13700
Br3489     Br  0.66708945  0.18348742  0.50023536    -0.05800
Br3490     Br  0.58487630  0.14538595  0.55669516    -0.00200
Br3491     Br  0.64749498  0.12927986  0.42936679     0.00300
Br3492     Br  0.60502610  0.20501376  0.49127731    -0.04100
Br3493     Br  0.66648232  0.18852448  0.55328310     0.00400
Br3494     Br  0.58486171  0.14147544  0.50325309    -0.03400
Br3495     Br  0.64211017  0.12152356  0.48177484    -0.04300
Br3496     Br  0.60438959  0.21138444  0.43898472    -0.00300
C3497       C  0.83302491  0.44365400  0.61805780     0.01100
C3498       C  0.85029648  0.45342067  0.62928680     0.03900
C3499       C  0.85117651  0.47584314  0.63165114    -0.12100
C3500       C  0.83547689  0.48881299  0.62229910     0.23200
C3501       C  0.81922641  0.47957395  0.60994142    -0.12700
C3502       C  0.81794998  0.45729272  0.60765766     0.04700
C3503       C  0.83536347  0.51226797  0.62573482     0.27100
C3504       C  0.82066317  0.52114108  0.64023061    -0.13400
C3505       C  0.81779395  0.54336165  0.64113951     0.05200
C3506       C  0.82994028  0.55702281  0.62776754    -0.09300
C3507       C  0.84541491  0.54803962  0.61386989     0.06000
C3508       C  0.84798194  0.52572411  0.61282735    -0.13700
Br3509     Br  0.79819649  0.49786514  0.59648045    -0.05800
Br3510     Br  0.87321497  0.43700409  0.64167252    -0.00200
Br3511     Br  0.79684484  0.55464512  0.66069695     0.00300
Br3512     Br  0.86788086  0.51335834  0.59276437    -0.04100
Br3513     Br  0.79542821  0.44672426  0.58927043     0.00400
Br3514     Br  0.87353528  0.48911245  0.64831855    -0.03400
Br3515     Br  0.80357640  0.50253541  0.65806132    -0.04300
Br3516     Br  0.86191797  0.56576454  0.59463643    -0.00300
C3517       C  0.83744809  0.36928007  0.43834824     0.01100
C3518       C  0.85372106  0.38081707  0.44887982     0.03900
C3519       C  0.85506803  0.38038195  0.47136725    -0.12100
C3520       C  0.84041310  0.36811111  0.48328616     0.23200
C3521       C  0.82555315  0.35498000  0.47270037    -0.12700
C3522       C  0.82414247  0.35546604  0.45029682     0.04700
C3523       C  0.83877013  0.37079861  0.50677318     0.27100
C3524       C  0.84905966  0.35659371  0.52077809    -0.13400
C3525       C  0.84574857  0.35821070  0.54303042     0.05200
C3526       C  0.83200707  0.37411816  0.55135960    -0.09300
C3527       C  0.82212557  0.38859569  0.53710493     0.06000
C3528       C  0.82549250  0.38690206  0.51496086    -0.13700
Br3529     Br  0.80630720  0.33723700  0.48910152    -0.05800
Br3530     Br  0.87346051  0.39806663  0.43283365    -0.00200
Br3531     Br  0.85915298  0.33768081  0.56169167     0.00300
Br3532     Br  0.81154367  0.40645848  0.49555607    -0.04100
Br3533     Br  0.80406306  0.33689789  0.43608639     0.00400
Br3534     Br  0.87609007  0.39751263  0.48604596    -0.03400
Br3535     Br  0.86717461  0.33458450  0.50919055    -0.04300
Br3536     Br  0.80443505  0.41142040  0.54749035    -0.00300
C3537       C  0.75461586  0.32677868  0.60866161     0.01100
C3538       C  0.73916150  0.32149163  0.62424944     0.03900
C3539       C  0.72322246  0.30636907  0.61967758    -0.12100
C3540       C  0.72283157  0.29617503  0.59960957     0.23200
C3541       C  0.73747169  0.30232166  0.58359255    -0.12700
C3542       C  0.75338922  0.31764555  0.58810598     0.04700
C3543       C  0.70874654  0.27731049  0.59662538     0.27100
C3544       C  0.71641432  0.25700695  0.60232134    -0.13400
C3545       C  0.70241355  0.23944746  0.60296414     0.05200
C3546       C  0.68030461  0.24229935  0.59929397    -0.09300
C3547       C  0.67288143  0.26249956  0.59236749     0.06000
C3548       C  0.68723892  0.27981824  0.59061425    -0.13700
Br3549     Br  0.73603706  0.28912627  0.55581558    -0.05800
Br3550     Br  0.73999064  0.33468315  0.65214638    -0.00200
Br3551     Br  0.71368298  0.21149874  0.60922960     0.00300
Br3552     Br  0.67734899  0.30745933  0.58141189    -0.04100
Br3553     Br  0.77448247  0.32485696  0.56678861     0.00400
Br3554     Br  0.70235334  0.29894124  0.64123874    -0.03400
Br3555     Br  0.74583392  0.25370119  0.61107062    -0.04300
Br3556     Br  0.64284967  0.26749001  0.58756299    -0.00300
C3557       C  0.62411276  0.44259665  0.81901671     0.01100
C3558       C  0.61034838  0.45640858  0.80764802     0.03900
C3559       C  0.61044068  0.47844162  0.81202324    -0.12100
C3560       C  0.62446075  0.48688994  0.82746951     0.23200
C3561       C  0.63811549  0.47322305  0.83890407    -0.12700
C3562       C  0.63794990  0.45113649  0.83475235     0.04700
C3563       C  0.62622617  0.51036754  0.83008309     0.27100
C3564       C  0.63973148  0.52190782  0.81629567    -0.13400
C3565       C  0.64077056  0.54424483  0.81768765     0.05200
C3566       C  0.62765771  0.55535477  0.83231442    -0.09300
C3567       C  0.61453267  0.54371928  0.84656056     0.06000
C3568       C  0.61397353  0.52122379  0.84553910    -0.13700
Br3569     Br  0.65739617  0.48498686  0.85992064    -0.05800
Br3570     Br  0.59081069  0.44535772  0.78643392    -0.00200
Br3571     Br  0.66086745  0.55940744  0.79992323     0.00300
Br3572     Br  0.59591674  0.50518786  0.86471891    -0.04100
Br3573     Br  0.65774925  0.43295374  0.84981999     0.00400
Br3574     Br  0.59147169  0.49732451  0.79676361    -0.03400
Br3575     Br  0.65623284  0.50700532  0.79487799    -0.04300
Br3576     Br  0.59635772  0.55846914  0.86657705    -0.00300
C3577       C  0.55640159  0.37449336  0.82084247     0.01100
C3578       C  0.54701561  0.37909750  0.84101292     0.03900
C3579       C  0.52457478  0.37891386  0.84345251    -0.12100
C3580       C  0.51127280  0.37470099  0.82580850     0.23200
C3581       C  0.52043009  0.36987223  0.80583773    -0.12700
C3582       C  0.54279114  0.36932190  0.80340508     0.04700
C3583       C  0.48757415  0.37557089  0.82789431     0.27100
C3584       C  0.47561855  0.35652421  0.82945775    -0.13400
C3585       C  0.45315850  0.35706003  0.82815102     0.05200
C3586       C  0.44245161  0.37669243  0.82622393    -0.09300
C3587       C  0.45441163  0.39579344  0.82485798     0.06000
C3588       C  0.47688719  0.39525189  0.82594174    -0.13700
Br3589     Br  0.50205763  0.36423162  0.78161277    -0.05800
Br3590     Br  0.56436936  0.38685781  0.86535074    -0.00200
Br3591     Br  0.43725675  0.33082124  0.82615134     0.00300
Br3592     Br  0.49315002  0.42141109  0.82408130    -0.04100
Br3593     Br  0.55422215  0.36024047  0.77615947     0.00400
Br3594     Br  0.51178062  0.38464793  0.87094724    -0.03400
Br3595     Br  0.49017507  0.32963651  0.83265242    -0.04300
Br3596     Br  0.44009887  0.42262387  0.82007725    -0.00300
C3597       C  0.60822087  0.32350222  0.74733072     0.01100
C3598       C  0.60512013  0.30164041  0.75180772     0.03900
C3599       C  0.60453139  0.28669965  0.73503110    -0.12100
C3600       C  0.60643137  0.29362465  0.71368879     0.23200
C3601       C  0.60730152  0.31559437  0.70906173    -0.12700
C3602       C  0.60854742  0.33054146  0.72583750     0.04700
C3603       C  0.61083010  0.27783784  0.69659038     0.27100
C3604       C  0.63221500  0.27323571  0.69131676    -0.13400
C3605       C  0.63685553  0.25745953  0.67611255     0.05200
C3606       C  0.62011205  0.24605652  0.66616866    -0.09300
C3607       C  0.59868366  0.25096574  0.67104690     0.06000
C3608       C  0.59405930  0.26694044  0.68621654    -0.13700
Br3609     Br  0.60856970  0.32488303  0.67964411    -0.05800
Br3610     Br  0.60251918  0.29208883  0.78103404    -0.00200
Br3611     Br  0.66631469  0.25184433  0.66863099     0.00300
Br3612     Br  0.56486993  0.27375275  0.69313590    -0.04100
Br3613     Br  0.61350447  0.36021764  0.71910968     0.00400
Br3614     Br  0.60293664  0.25656941  0.74126702    -0.03400
Br3615     Br  0.65526830  0.28836903  0.70523059    -0.04300
Br3616     Br  0.57576815  0.23496089  0.65798602    -0.00300
C3617       C  0.67674629  0.38217273  0.74705840     0.01100
C3618       C  0.68659802  0.36543294  0.73559570     0.03900
C3619       C  0.70261765  0.36996532  0.72057460    -0.12100
C3620       C  0.70865855  0.39123929  0.71651896     0.23200
C3621       C  0.69842728  0.40805463  0.72737807    -0.12700
C3622       C  0.68250160  0.40354747  0.74271447     0.04700
C3623       C  0.72598369  0.39542987  0.70088166     0.27100
C3624       C  0.74736117  0.39602202  0.70785541    -0.13400
C3625       C  0.76408354  0.39482852  0.69286818     0.05200
C3626       C  0.75944548  0.39264865  0.67087320    -0.09300
C3627       C  0.73802604  0.39411578  0.66381182     0.06000
C3628       C  0.72135207  0.39543050  0.67885277    -0.13700
Br3629     Br  0.70656459  0.43712866  0.72136271    -0.05800
Br3630     Br  0.67770513  0.33612130  0.73972125    -0.00200
Br3631     Br  0.79337207  0.39550428  0.70254260     0.00300
Br3632     Br  0.69197212  0.39491969  0.66949277    -0.04100
Br3633     Br  0.66945766  0.42656616  0.75845182     0.00400
Br3634     Br  0.71657622  0.34689073  0.70564644    -0.03400
Br3635     Br  0.75359904  0.39641483  0.73807537    -0.04300
Br3636     Br  0.73099209  0.39173913  0.63380294    -0.00300
C3637       C  0.94246498  0.12396248  0.66564968     0.01100
C3638       C  0.95082916  0.14135986  0.65388925     0.03900
C3639       C  0.97307863  0.14374930  0.65148602    -0.12100
C3640       C  0.98703301  0.12897454  0.66106299     0.23200
C3641       C  0.97870196  0.11170387  0.67289817    -0.12700
C3642       C  0.95650255  0.10896096  0.67484748     0.04700
C3643       C  0.01053227  0.13181659  0.65962703     0.27100
C3644       C  0.02267791  0.11869910  0.64594040    -0.13400
C3645       C  0.04510628  0.11806702  0.64791657     0.05200
C3646       C  0.05545452  0.13137469  0.66290206    -0.09300
C3647       C  0.04330465  0.14618621  0.67484176     0.06000
C3648       C  0.02090745  0.14596994  0.67368313    -0.13700
Br3649     Br  0.99782946  0.09223857  0.68721082    -0.05800
Br3650     Br  0.93203764  0.16274574  0.64213629    -0.00200
Br3651     Br  0.06117486  0.09743699  0.63173851     0.00300
Br3652     Br  0.00437597  0.16392279  0.69255859    -0.04100
Br3653     Br  0.94543113  0.08409887  0.68945780     0.00400
Br3654     Br  0.98455793  0.16765468  0.63572707    -0.03400
Br3655     Br  0.00828445  0.10074934  0.62540643    -0.04300
Br3656     Br  0.05727721  0.16670582  0.69316220    -0.00300
C3657       C  0.86998768  0.05580436  0.66581864     0.01100
C3658       C  0.85302125  0.04563150  0.67670925     0.03900
C3659       C  0.85059464  0.02331601  0.67560232    -0.12100
C3660       C  0.86565967  0.01096031  0.66440600     0.23200
C3661       C  0.88197410  0.02116609  0.65262653    -0.12700
C3662       C  0.88404902  0.04357310  0.65320525     0.04700
C3663       C  0.86660340  0.98752689  0.66811971     0.27100
C3664       C  0.87958887  0.97978192  0.68474295    -0.13400
C3665       C  0.88125323  0.95771936  0.68848558     0.05200
C3666       C  0.86950766  0.94304514  0.67579454    -0.09300
C3667       C  0.85584460  0.95098271  0.65957196     0.06000
C3668       C  0.85462248  0.97314000  0.65562650    -0.13700
Br3669     Br  0.90213149  0.00420393  0.63670700    -0.05800
Br3670     Br  0.83353647  0.06213791  0.69387612    -0.00200
Br3671     Br  0.90053445  0.94814390  0.71062919     0.00300
Br3672     Br  0.83640643  0.98395216  0.63327256    -0.04100
Br3673     Br  0.90723434  0.05735241  0.63823897     0.00400
Br3674     Br  0.82712635  0.00944657  0.69007962    -0.03400
Br3675     Br  0.89514911  0.99972628  0.70252694    -0.04300
Br3676     Br  0.83763872  0.93186018  0.64353671    -0.00300
C3677       C  0.80444078  0.12875054  0.63742232     0.01100
C3678       C  0.79338639  0.14759476  0.63233954     0.03900
C3679       C  0.77141225  0.14686496  0.62823535    -0.12100
C3680       C  0.76056564  0.12713122  0.62817319     0.23200
C3681       C  0.77196480  0.10803964  0.63142968    -0.12700
C3682       C  0.79395866  0.10885725  0.63620385     0.04700
C3683       C  0.73697406  0.12711830  0.62661599     0.27100
C3684       C  0.72472672  0.12783438  0.64551892    -0.13400
C3685       C  0.70296489  0.13304477  0.64448395     0.05200
C3686       C  0.69375306  0.13873855  0.62477046    -0.09300
C3687       C  0.70542294  0.13614213  0.60572127     0.06000
C3688       C  0.72702943  0.13004971  0.60662224    -0.13700
Br3689     Br  0.75704861  0.08109451  0.63086082    -0.05800
Br3690     Br  0.80836412  0.17462339  0.63198715    -0.00200
Br3691     Br  0.68603055  0.13387459  0.67026927     0.00300
Br3692     Br  0.74366899  0.12778165  0.58077803    -0.04100
Br3693     Br  0.80932622  0.08304410  0.64258591     0.00400
Br3694     Br  0.75582092  0.17316251  0.62486526    -0.03400
Br3695     Br  0.73830350  0.12441560  0.67302027    -0.04300
Br3696     Br  0.69215513  0.14225394  0.57867442    -0.00300
C3697       C  0.85350948  0.30276715  0.61988930     0.01100
C3698       C  0.83893464  0.28572059  0.61695696     0.03900
C3699       C  0.84569779  0.26451022  0.61934962    -0.12100
C3700       C  0.86753283  0.25993932  0.62231263     0.23200
C3701       C  0.88257353  0.27676217  0.62191921    -0.12700
C3702       C  0.87559596  0.29819055  0.62129688     0.04700
C3703       C  0.87407103  0.23772302  0.62773020     0.27100
C3704       C  0.87920067  0.23256054  0.64906412    -0.13400
C3705       C  0.88133841  0.21110712  0.65515632     0.05200
C3706       C  0.87626230  0.19460913  0.64062046    -0.09300
C3707       C  0.87315409  0.19967560  0.61885419     0.06000
C3708       C  0.87266961  0.22126243  0.61235110    -0.13700
Br3709     Br  0.91265238  0.27029704  0.62335138    -0.05800
Br3710     Br  0.80960316  0.29125014  0.60906831    -0.00200
Br3711     Br  0.89132252  0.20427427  0.68355760     0.00300
Br3712     Br  0.86864891  0.22847949  0.58265269    -0.04100
Br3713     Br  0.89634975  0.32085569  0.62386400     0.00400
Br3714     Br  0.82459432  0.24193551  0.62047778    -0.03400
Br3715     Br  0.88121889  0.25459414  0.67060235    -0.04300
Br3716     Br  0.86785062  0.17741158  0.59825746    -0.00300
C3717       C  0.67487983  0.12017894  0.05056023     0.01100
C3718       C  0.67405956  0.10093380  0.03882587     0.03900
C3719       C  0.67236524  0.10147519  0.01637491    -0.12100
C3720       C  0.67072125  0.12118055  0.00565446     0.23200
C3721       C  0.67099425  0.14035504  0.01737234    -0.12700
C3722       C  0.67341713  0.13987850  0.03971238     0.04700
C3723       C  0.67077132  0.12188212  0.98194633     0.27100
C3724       C  0.69024977  0.12457067  0.97113884    -0.13400
C3725       C  0.69070571  0.12541193  0.94870177     0.05200
C3726       C  0.67156378  0.12299617  0.93669141    -0.09300
C3727       C  0.65197155  0.12027451  0.94773688     0.06000
C3728       C  0.65162859  0.11994558  0.97030360    -0.13700
Br3729     Br  0.66893958  0.16731873  0.00258010    -0.05800
Br3730     Br  0.67467371  0.07379478  0.05344129    -0.00200
Br3731     Br  0.71795737  0.13058963  0.93509886     0.00300
Br3732     Br  0.62502608  0.11649763  0.98551648    -0.04100
Br3733     Br  0.67655157  0.16633615  0.05510955     0.00400
Br3734     Br  0.67319670  0.07532945  0.00009085    -0.03400
Br3735     Br  0.71648376  0.12683202  0.98736379    -0.04300
Br3736     Br  0.62566300  0.11546519  0.93236793    -0.00300
C3737       C  0.67206092  0.94218574  0.88259872     0.01100
C3738       C  0.68814889  0.95598635  0.89090328     0.03900
C3739       C  0.68668869  0.97826403  0.88816117    -0.12100
C3740       C  0.66878642  0.98728422  0.87808264     0.23200
C3741       C  0.65207253  0.97394047  0.87108246    -0.12700
C3742       C  0.65362226  0.95152462  0.87320799     0.04700
C3743       C  0.66759141  0.01089521  0.87511473     0.27100
C3744       C  0.66116736  0.02410103  0.89218831    -0.13400
C3745       C  0.66234181  0.04649964  0.89021675     0.05200
C3746       C  0.66882976  0.05589480  0.87071784    -0.09300
C3747       C  0.67393621  0.04261906  0.85323513     0.06000
C3748       C  0.67393885  0.02023823  0.85559761    -0.13700
Br3749     Br  0.62706945  0.98668932  0.85837452    -0.05800
Br3750     Br  0.71182593  0.94507117  0.90749525    -0.00200
Br3751     Br  0.65681669  0.06414085  0.91487531     0.00300
Br3752     Br  0.68358185  0.00234609  0.83242928    -0.04100
Br3753     Br  0.63033110  0.93423551  0.86262670     0.00400
Br3754     Br  0.70947950  0.99669225  0.89799123    -0.03400
Br3755     Br  0.65137707  0.01133753  0.91851370    -0.04300
Br3756     Br  0.68022072  0.05507680  0.82582207    -0.00300
C3757       C  0.64038355  0.12467215  0.79927768     0.01100
C3758       C  0.62058928  0.13409298  0.79426277     0.03900
C3759       C  0.61422959  0.13607801  0.77270509    -0.12100
C3760       C  0.62773794  0.12875181  0.75618627     0.23200
C3761       C  0.64639168  0.11733723  0.76139369    -0.12700
C3762       C  0.65268523  0.11532906  0.78287526     0.04700
C3763       C  0.62520080  0.13695246  0.73399053     0.27100
C3764       C  0.61793897  0.12372448  0.71727312    -0.13400
C3765       C  0.61977917  0.13048973  0.69576579     0.05200
C3766       C  0.62761476  0.15121934  0.69098370    -0.09300
C3767       C  0.63286572  0.16510116  0.70818600     0.06000
C3768       C  0.63244324  0.15770901  0.72936953    -0.13700
Br3769     Br  0.66469328  0.10666516  0.73894548    -0.05800
Br3770     Br  0.60353991  0.14657457  0.81667080    -0.00200
Br3771     Br  0.61339188  0.11038526  0.67326363     0.00300
Br3772     Br  0.64307046  0.17579692  0.75215415    -0.04100
Br3773     Br  0.67922882  0.10135660  0.78972901     0.00400
Br3774     Br  0.58833072  0.15104458  0.76553511    -0.03400
Br3775     Br  0.60610087  0.09610119  0.72405367    -0.04300
Br3776     Br  0.64031405  0.19470134  0.70355779    -0.00300
C3777       C  0.62826131  0.30572375  0.85190540     0.01100
C3778       C  0.64654865  0.29698808  0.86157641     0.03900
C3779       C  0.64649603  0.27553154  0.86818391    -0.12100
C3780       C  0.62813735  0.26280566  0.86501802     0.23200
C3781       C  0.60901543  0.27244142  0.85806677    -0.12700
C3782       C  0.60908140  0.29397485  0.85153418     0.04700
C3783       C  0.63048149  0.23919033  0.86420601     0.27100
C3784       C  0.63528725  0.22963768  0.84438663    -0.13400
C3785       C  0.64035763  0.20785334  0.84335131     0.05200
C3786       C  0.64167041  0.19555611  0.86223915    -0.09300
C3787       C  0.63589868  0.20482941  0.88198329     0.06000
C3788       C  0.62990342  0.22656641  0.88288037    -0.13700
Br3789     Br  0.58336368  0.25556589  0.85580732    -0.05800
Br3790     Br  0.67209239  0.31410504  0.86430172    -0.00200
Br3791     Br  0.64603043  0.19495283  0.81585416     0.00300
Br3792     Br  0.62172556  0.23940550  0.90963936    -0.04100
Br3793     Br  0.58336784  0.30720503  0.84106501     0.00400
Br3794     Br  0.67216745  0.26303695  0.87967024    -0.03400
Br3795     Br  0.63644057  0.24683262  0.81870685    -0.04300
Br3796     Br  0.63804102  0.18837821  0.90791649    -0.00300
C3797       C  0.74391249  0.11664833  0.81774658     0.01100
C3798       C  0.75552891  0.13429418  0.80980526     0.03900
C3799       C  0.77244164  0.13108437  0.79547950    -0.12100
C3800       C  0.77811446  0.11020779  0.78943025     0.23200
C3801       C  0.76760188  0.09253288  0.79855405    -0.12700
C3802       C  0.75038176  0.09574851  0.81263256     0.04700
C3803       C  0.79414143  0.10722208  0.77236926     0.27100
C3804       C  0.78722209  0.10491844  0.75106339    -0.13400
C3805       C  0.80200297  0.10655605  0.73424608     0.05200
C3806       C  0.82374436  0.11037716  0.73876461    -0.09300
C3807       C  0.83084917  0.11119067  0.76020191     0.06000
C3808       C  0.81601766  0.10952717  0.77698820    -0.13700
Br3809     Br  0.77674801  0.06404795  0.79146526    -0.05800
Br3810     Br  0.74897547  0.16293405  0.81917293    -0.00200
Br3811     Br  0.79227550  0.10445972  0.70501631     0.00300
Br3812     Br  0.82529457  0.11220429  0.80631554    -0.04100
Br3813     Br  0.73521634  0.07159679  0.82414470     0.00400
Br3814     Br  0.78765907  0.15535380  0.78384047    -0.03400
Br3815     Br  0.75722043  0.10106942  0.74493310    -0.04300
Br3816     Br  0.86041556  0.11725620  0.76678365    -0.00300
C3817       C  0.87463405  0.32139597  0.05430961     0.01100
C3818       C  0.85882897  0.31010842  0.04285591     0.03900
C3819       C  0.85845827  0.31083449  0.02035562    -0.12100
C3820       C  0.87282141  0.32421771  0.00921143     0.23200
C3821       C  0.88730924  0.33706672  0.02080611    -0.12700
C3822       C  0.88863053  0.33524422  0.04322454     0.04700
C3823       C  0.87371595  0.32370732  0.98538603     0.27100
C3824       C  0.89092265  0.31342430  0.97511971    -0.13400
C3825       C  0.89198304  0.31278712  0.95266616     0.05200
C3826       C  0.87515701  0.32115695  0.94023736    -0.09300
C3827       C  0.85791782  0.33146165  0.95044849     0.06000
C3828       C  0.85745621  0.33316132  0.97295452    -0.13700
Br3829     Br  0.90584205  0.35670966  0.00583066    -0.05800
Br3830     Br  0.83681794  0.29474341  0.05806362    -0.00200
Br3831     Br  0.91713714  0.30136096  0.93892557     0.00300
Br3832     Br  0.83448202  0.34829887  0.98679982    -0.04100
Br3833     Br  0.91059466  0.35075466  0.05842212     0.00400
Br3834     Br  0.83895419  0.29263734  0.00483497    -0.03400
Br3835     Br  0.91282040  0.29956870  0.99184216    -0.04300
Br3836     Br  0.83434577  0.34216850  0.93375533    -0.00300
C3837       C  0.05523208  0.32189801  0.87168250     0.01100
C3838       C  0.04263539  0.31239908  0.88789251     0.03900
C3839       C  0.02018864  0.31297778  0.88663226    -0.12100
C3840       C  0.01013432  0.32354613  0.86951137     0.23200
C3841       C  0.02260740  0.33304435  0.85332132    -0.12700
C3842       C  0.04509173  0.33200202  0.85423865     0.04700
C3843       C  0.98641134  0.32433603  0.86846918     0.27100
C3844       C  0.97515558  0.30924262  0.85614168    -0.13400
C3845       C  0.95270279  0.30953127  0.85574230     0.05200
C3846       C  0.94129661  0.32379895  0.86897778    -0.09300
C3847       C  0.95256271  0.33898212  0.88124316     0.06000
C3848       C  0.97506808  0.33965207  0.88045230    -0.13700
Br3849     Br  0.00869249  0.34717284  0.82974038    -0.05800
Br3850     Br  0.05602216  0.29910885  0.91230679    -0.00200
Br3851     Br  0.93761190  0.29065519  0.83656253     0.00300
Br3852     Br  0.99053354  0.36113599  0.89622087    -0.04100
Br3853     Br  0.06182543  0.34310272  0.83080873     0.00400
Br3854     Br  0.00305287  0.29885447  0.90811136    -0.03400
Br3855     Br  0.99049719  0.28741600  0.84073166    -0.04300
Br3856     Br  0.93737006  0.35760005  0.90048831    -0.00300
C3857       C  0.74009482  0.17315815  0.88493642     0.01100
C3858       C  0.73683763  0.19543741  0.88491165     0.03900
C3859       C  0.75429429  0.20933542  0.88752505    -0.12100
C3860       C  0.77484036  0.20101005  0.89132541     0.23200
C3861       C  0.77769035  0.17884533  0.89359322    -0.12700
C3862       C  0.76049237  0.16487422  0.88983628     0.04700
C3863       C  0.79367281  0.21522207  0.88937497     0.27100
C3864       C  0.80490828  0.21570641  0.86983848    -0.13400
C3865       C  0.82078363  0.23113345  0.86647858     0.05200
C3866       C  0.82539723  0.24625236  0.88250597    -0.09300
C3867       C  0.81525320  0.24494204  0.90255892     0.06000
C3868       C  0.79932568  0.22937059  0.90600585    -0.13700
Br3869     Br  0.80569564  0.16765844  0.89986123    -0.05800
Br3870     Br  0.70854440  0.20699479  0.88086277    -0.00200
Br3871     Br  0.83606313  0.23179081  0.83962523     0.00300
Br3872     Br  0.78457100  0.22789984  0.93303206    -0.04100
Br3873     Br  0.76582915  0.13453357  0.88858794     0.00400
Br3874     Br  0.75042409  0.23970480  0.88388748    -0.03400
Br3875     Br  0.79783423  0.19595543  0.84713064    -0.04300
Br3876     Br  0.82237661  0.26513972  0.92470480    -0.00300
C3877       C  0.88635027  0.17505365  0.73918239     0.01100
C3878       C  0.90775131  0.18132355  0.74266390     0.03900
C3879       C  0.91255141  0.19680592  0.75838723    -0.12100
C3880       C  0.89593471  0.20634098  0.77020727     0.23200
C3881       C  0.87461489  0.20008555  0.76666550    -0.12700
C3882       C  0.86986686  0.18421698  0.75160546     0.04700
C3883       C  0.90011213  0.22322050  0.78632109     0.27100
C3884       C  0.90223203  0.21760675  0.80801279    -0.13400
C3885       C  0.89864195  0.23295379  0.82406635     0.05200
C3886       C  0.89247581  0.25389788  0.81832373    -0.09300
C3887       C  0.89319187  0.26005308  0.79657652     0.06000
C3888       C  0.89710159  0.24472321  0.78062689    -0.13700
Br3889     Br  0.85167361  0.21380030  0.78214730    -0.05800
Br3890     Br  0.93023544  0.16979697  0.72505465    -0.00200
Br3891     Br  0.90031071  0.22440449  0.85369342     0.00300
Br3892     Br  0.89649409  0.25262334  0.75080462    -0.04100
Br3893     Br  0.84056350  0.17469713  0.74868275     0.00400
Br3894     Br  0.94166976  0.20541543  0.76347795    -0.03400
Br3895     Br  0.90812338  0.18836965  0.81558615    -0.04300
Br3896     Br  0.88849414  0.28938945  0.78846670    -0.00300
C3897       C  0.86731196  0.35019478  0.80133772     0.01100
C3898       C  0.84856571  0.35448225  0.78963001     0.03900
C3899       C  0.84978929  0.35938588  0.76775027    -0.12100
C3900       C  0.86983334  0.36068284  0.75752380     0.23200
C3901       C  0.88868325  0.35769431  0.76948858    -0.12700
C3902       C  0.88742412  0.35215549  0.79134341     0.04700
C3903       C  0.87049824  0.36300014  0.73386513     0.27100
C3904       C  0.87026248  0.34454079  0.72100477    -0.13400
C3905       C  0.86553117  0.34614486  0.69909699     0.05200
C3906       C  0.86033693  0.36610521  0.69004939    -0.09300
C3907       C  0.86227873  0.38473950  0.70250869     0.06000
C3908       C  0.86777031  0.38320043  0.72433624    -0.13700
Br3909     Br  0.91603291  0.35987872  0.75550334    -0.05800
Br3910     Br  0.82099039  0.35246597  0.80345037    -0.00200
Br3911     Br  0.86462743  0.32068684  0.68167163     0.00300
Br3912     Br  0.87005656  0.40850229  0.74170346    -0.04100
Br3913     Br  0.91298842  0.34507359  0.80697771     0.00400
Br3914     Br  0.82383724  0.36249971  0.75133773    -0.03400
Br3915     Br  0.87433743  0.31681880  0.73382100    -0.04300
Br3916     Br  0.85518483  0.41199842  0.69037278    -0.00300
C3917       C  0.80127267  0.34663406  0.87200708     0.01100
C3918       C  0.79762696  0.36896856  0.87163249     0.03900
C3919       C  0.77651094  0.37690317  0.87031073    -0.12100
C3920       C  0.75911840  0.36267787  0.86856044     0.23200
C3921       C  0.76258363  0.34065327  0.87123753    -0.12700
C3922       C  0.78344588  0.33276822  0.87377231     0.04700
C3923       C  0.73782831  0.37007871  0.86083676     0.27100
C3924       C  0.72049114  0.37264682  0.87501133    -0.13400
C3925       C  0.69940179  0.37414556  0.86701856     0.05200
C3926       C  0.69566291  0.37321547  0.84472364    -0.09300
C3927       C  0.71341386  0.37350723  0.83065599     0.06000
C3928       C  0.73431628  0.37165563  0.83866548    -0.13700
Br3929     Br  0.73877799  0.32102417  0.86971611    -0.05800
Br3930     Br  0.82115614  0.38889674  0.87141538    -0.00200
Br3931     Br  0.67581502  0.37592208  0.88676664     0.00300
Br3932     Br  0.75818893  0.36985961  0.81911937    -0.04100
Br3933     Br  0.78737553  0.30283732  0.88007492     0.00400
Br3934     Br  0.77117966  0.40718962  0.86984656    -0.03400
Br3935     Br  0.72577205  0.37309843  0.90534581    -0.04300
Br3936     Br  0.70940869  0.37656723  0.80021082    -0.00300
loop_ 
_geom_bond_atom_site_label_1 
_geom_bond_atom_site_label_2 
_geom_bond_distance 
_geom_bond_site_symmetry_2 
_ccdc_geom_bond_type 
Fe1          O17   2.042       .  S
Fe1           O7   2.063       .  S
Fe1          O14   2.066       .  S
Fe1           O6   2.032       .  S
Fe1          O12   1.968       .  S
Fe2           O5   2.055       .  S
Fe2           O9   2.071       .  S
Fe2          O13   2.063       .  S
Fe2          O18   2.053       .  S
Fe2          O12   1.978       .  S
Fe3          O21   2.086       .  S
Fe3           O8   2.083       .  S
Fe3          O15   2.093       .  S
Fe3           O4   2.093       .  S
Fe3          O12   1.986       .  S
O4           C11   1.272       .  A
O5           C19   1.268       .  A
O6           C11   1.261       .  A
O7           C10   1.270       .  A
O8           C20   1.272       .  A
O9           C22   1.267       .  A
C10          O15   1.274       .  A
C10        C3917   1.498       .  S
C11        C3897   1.475       .  S
O13          C16   1.267       .  A
O14          C16   1.269       .  A
C16        C3886   1.484       .  S
O17          C22   1.264       .  A
O18          C20   1.266       .  A
C19          O21   1.273       .  A
C19        C3826   1.482       .  S
C20        C3846   1.480       .  S
C22        C3866   1.468       .  S
Fe23         O39   2.045       .  S
Fe23         O29   2.061       .  S
Fe23         O36   2.068       .  S
Fe23         O28   2.037       .  S
Fe23         O34   1.951       .  S
Fe24         O27   2.056       .  S
Fe24         O31   2.069       .  S
Fe24         O35   2.059       .  S
Fe24         O40   2.064       .  S
Fe24         O34   1.958       .  S
Fe25         O43   2.111       .  S
Fe25         O30   2.083       .  S
Fe25         O37   2.088       .  S
Fe25         O26   2.104       .  S
Fe25         O34   1.963       .  S
O26          C33   1.274       .  A
O27          C41   1.271       .  A
O28          C33   1.263       .  A
O29          C32   1.271       .  A
O30          C42   1.272       .  A
O31          C44   1.265       .  A
C32          O37   1.276       .  A
C32        C3757   1.478       .  S
C33        C3786   1.483       .  S
O35          C38   1.270       .  A
O36          C38   1.272       .  A
C38        C3857   1.475       .  S
O39          C44   1.263       .  A
O40          C42   1.266       .  A
C41          O43   1.279       .  A
C41        C3746   1.486       .  S
C42        C3726   1.491       .  S
C44        C3797   1.470       .  S
Fe45         O61   2.039       .  S
Fe45         O51   2.049       .  S
Fe45         O58   2.052       .  S
Fe45         O50   2.034       .  S
Fe45         O56   1.965       .  S
Fe46         O49   2.056       .  S
Fe46         O53   2.085       .  S
Fe46         O57   2.060       .  S
Fe46         O62   2.073       .  S
Fe46         O56   1.979       .  S
Fe47         O65   2.068       .  S
Fe47         O52   2.073       .  S
Fe47         O59   2.087       .  S
Fe47         O48   2.079       .  S
Fe47         O56   1.990       .  S
O48          C55   1.268       .  A
O49          C63   1.267       .  A
O50          C55   1.262       .  A
O51          C54   1.267       .  A
O52          C64   1.271       .  A
O53          C66   1.271       .  A
C54          O59   1.272       .  A
C54        C3706   1.485       .  S
C55        C3677   1.468       .  S
O57          C60   1.267       .  A
O58          C60   1.266       .  A
C60        C3806   1.470       .  S
O61          C66   1.264       .  A
O62          C64   1.271       .  A
C63          O65   1.268       .  A
C63        C3637   1.478       .  S
C64        C3657   1.480       .  S
C66        C3877   1.479       .  S
Fe67         O83   2.044       .  S
Fe67         O73   2.068       .  S
Fe67         O80   2.058       .  S
Fe67         O72   2.053       .  S
Fe67         O78   1.956       .  S
Fe68         O71   2.062       .  S
Fe68         O75   2.079       .  S
Fe68         O79   2.074       .  S
Fe68         O84   2.083       .  S
Fe68         O78   1.971       .  S
Fe69         O87   2.070       .  S
Fe69         O74   2.078       .  S
Fe69         O81   2.090       .  S
Fe69         O70   2.079       .  S
Fe69         O78   1.971       .  S
O70          C77   1.267       .  A
O71          C85   1.267       .  A
O72          C77   1.265       .  A
O73          C76   1.271       .  A
O74          C86   1.274       .  A
O75          C88   1.270       .  A
C76          O81   1.275       .  A
C76        C3926   1.493       .  S
C77        C3777   1.472       .  S
O79          C82   1.270       .  A
O80          C82   1.268       .  A
C82        C3597   1.479       .  S
O83          C88   1.266       .  A
O84          C86   1.274       .  A
C85          O87   1.267       .  A
C85        C3557   1.483       .  S
C86        C3577   1.499       .  S
C88        C3617   1.478       .  S
Fe89        O105   2.048       .  S
Fe89         O95   2.050       .  S
Fe89        O102   2.056       .  S
Fe89         O94   2.039       .  S
Fe89        O100   1.970       .  S
Fe90         O93   2.067       .  S
Fe90         O97   2.071       .  S
Fe90        O101   2.071       .  S
Fe90        O106   2.052       .  S
Fe90        O100   1.974       .  S
Fe91        O109   2.072       .  S
Fe91         O96   2.091       .  S
Fe91        O103   2.091       .  S
Fe91         O92   2.094       .  S
Fe91        O100   1.992       .  S
O92          C99   1.272       .  A
O93         C107   1.269       .  A
O94          C99   1.263       .  A
O95          C98   1.268       .  A
O96         C108   1.274       .  A
O97         C110   1.267       .  A
C98         O103   1.274       .  A
C98        C3697   1.490       .  S
C99        C3906   1.478       .  S
O101        C104   1.270       .  A
O102        C104   1.269       .  A
C104       C3626   1.480       .  S
O105        C110   1.264       .  A
O106        C108   1.265       .  A
C107        O109   1.269       .  A
C107       C3526   1.488       .  S
C108       C3497   1.510       .  S
C110       C3537   1.475       .  S
Fe111       O127   2.042       .  S
Fe111       O117   2.064       .  S
Fe111       O124   2.055       .  S
Fe111       O116   2.044       .  S
Fe111       O122   1.949       .  S
Fe112       O115   2.064       .  S
Fe112       O119   2.083       .  S
Fe112       O123   2.075       .  S
Fe112       O128   2.070       .  S
Fe112       O122   1.965       .  S
Fe113       O131   2.065       .  S
Fe113       O118   2.076       .  S
Fe113       O125   2.083       .  S
Fe113       O114   2.093       .  S
Fe113       O122   1.966       .  S
O114        C121   1.272       .  A
O115        C129   1.268       .  A
O116        C121   1.267       .  A
O117        C120   1.266       .  A
O118        C130   1.274       .  A
O119        C132   1.273       .  A
C120        O125   1.270       .  A
C120       C3766   1.496       .  S
C121       C3686   1.469       .  S
O123        C126   1.268       .  A
O124        C126   1.265       .  A
C126       C3546   1.488       .  S
O127        C132   1.267       .  A
O128        C130   1.272       .  A
C129        O131   1.268       .  A
C129       C3457   1.478       .  S
C130       C3477   1.474       .  S
C132       C3606   1.473       .  S
Fe133       O149   2.058       .  S
Fe133       O139   2.047       .  S
Fe133       O146   2.045       .  S
Fe133       O138   2.044       .  S
Fe133       O144   1.974       .  S
Fe134       O137   2.045       .  S
Fe134       O141   2.077       .  S
Fe134       O145   2.050       .  S
Fe134       O150   2.043       .  S
Fe134       O144   1.981       .  S
Fe135       O153   2.093       .  S
Fe135       O140   2.095       .  S
Fe135       O147   2.088       .  S
Fe135       O136   2.098       .  S
Fe135       O144   1.980       .  S
O136        C143   1.273       .  A
O137        C151   1.261       .  A
O138        C143   1.264       .  A
O139        C142   1.266       .  A
O140        C152   1.276       .  A
O141        C154   1.271       .  A
C142        O147   1.274       .  A
C142       C3397   1.493       .  S
C143       C3377   1.480       .  S
O145        C148   1.261       .  A
O146        C148   1.263       .  A
C148       C3426   1.476       .  S
O149        C154   1.268       .  A
O150        C152   1.267       .  A
C151        O153   1.272       .  A
C151       C3357   1.506       .  S
C152       C3646   1.481       .  S
C154       C3446   1.473       .  S
Fe155       O171   2.081       .  S
Fe155       O161   2.055       .  S
Fe155       O168   2.054       .  S
Fe155       O160   2.054       .  S
Fe155       O166   1.947       .  S
Fe156       O159   2.077       .  S
Fe156       O163   2.066       .  S
Fe156       O167   2.095       .  S
Fe156       O172   2.056       .  S
Fe156       O166   1.962       .  S
Fe157       O175   2.079       .  S
Fe157       O162   2.088       .  S
Fe157       O169   2.099       .  S
Fe157       O158   2.092       .  S
Fe157       O166   1.964       .  S
O158        C165   1.272       .  A
O159        C173   1.269       .  A
O160        C165   1.266       .  A
O161        C164   1.269       .  A
O162        C174   1.276       .  A
O163        C176   1.271       .  A
C164        O169   1.276       .  A
C164       C3317   1.481       .  S
C165       C3337   1.480       .  S
O167        C170   1.271       .  A
O168        C170   1.262       .  A
C170       C3437   1.500       .  S
O171        C176   1.273       .  A
O172        C174   1.272       .  A
C173        O175   1.271       .  A
C173       C3266   1.496       .  S
C174       C3277   1.479       .  S
C176       C3297   1.479       .  S
Fe177       O193   2.034       .  S
Fe177       O183   2.042       .  S
Fe177       O190   2.052       .  S
Fe177       O182   2.041       .  S
Fe177       O188   1.960       .  S
Fe178       O181   2.053       .  S
Fe178       O185   2.064       .  S
Fe178       O189   2.073       .  S
Fe178       O194   2.053       .  S
Fe178       O188   1.973       .  S
Fe179       O197   2.092       .  S
Fe179       O184   2.090       .  S
Fe179       O191   2.092       .  S
Fe179       O180   2.097       .  S
Fe179       O188   1.980       .  S
O180        C187   1.274       .  A
O181        C195   1.267       .  A
O182        C187   1.266       .  A
O183        C186   1.264       .  A
O184        C196   1.274       .  A
O185        C198   1.266       .  A
C186        O191   1.273       .  A
C186       C3246   1.482       .  S
C187       C3226   1.479       .  S
O189        C192   1.268       .  A
O190        C192   1.264       .  A
C192       C3306   1.488       .  S
O193        C198   1.264       .  A
O194        C196   1.268       .  A
C195        O197   1.274       .  A
C195       C3837   1.484       .  S
C196       C3206   1.491       .  S
C198       C3417   1.459       .  S
Fe199       O215   2.051       .  S
Fe199       O205   2.038       .  S
Fe199       O212   2.054       .  S
Fe199       O204   2.064       .  S
Fe199       O210   1.966       .  S
Fe200       O203   2.054       .  S
Fe200       O207   2.081       .  S
Fe200       O211   2.058       .  S
Fe200       O216   2.056       .  S
Fe200       O210   1.986       .  S
Fe201       O219   2.093       .  S
Fe201       O206   2.092       .  S
Fe201       O213   2.115       .  S
Fe201       O202   2.091       .  S
Fe201       O210   1.992       .  S
O202        C209   1.272       .  A
O203        C217   1.267       .  A
O204        C209   1.270       .  A
O205        C208   1.262       .  A
O206        C218   1.274       .  A
O207        C220   1.271       .  A
C208        O213   1.276       .  A
C208       C3326   1.504       .  S
C209       C3217   1.481       .  S
O211        C214   1.265       .  A
O212        C214   1.265       .  A
C214       C3166   1.481       .  S
O215        C220   1.267       .  A
O216        C218   1.267       .  A
C217        O219   1.276       .  A
C217       C3586   1.480       .  S
C218       C3137   1.491       .  S
C220       C3177   1.484       .  S
Fe221       O237   2.045       .  S
Fe221       O227   2.063       .  S
Fe221       O234   2.062       .  S
Fe221       O226   2.051       .  S
Fe221       O232   1.967       .  S
Fe222       O225   2.058       .  S
Fe222       O229   2.066       .  S
Fe222       O233   2.071       .  S
Fe222       O238   2.056       .  S
Fe222       O232   1.979       .  S
Fe223       O241   2.072       .  S
Fe223       O228   2.078       .  S
Fe223       O235   2.078       .  S
Fe223       O224   2.086       .  S
Fe223       O232   1.980       .  S
O224        C231   1.270       .  A
O225        C239   1.266       .  A
O226        C231   1.265       .  A
O227        C230   1.269       .  A
O228        C240   1.273       .  A
O229        C242   1.267       .  A
C230        O235   1.271       .  A
C230       C3237   1.493       .  S
C231       C3386   1.476       .  S
O233        C236   1.268       .  A
O234        C236   1.268       .  A
C236       C3117   1.494       .  S
O237        C242   1.266       .  A
O238        C240   1.269       .  A
C239        O241   1.268       .  A
C239       C3077   1.480       .  S
C240       C3106   1.477       .  S
C242       C3157   1.467       .  S
Fe243       O259   2.050       .  S
Fe243       O249   2.043       .  S
Fe243       O256   2.037       .  S
Fe243       O248   2.041       .  S
Fe243       O254   1.963       .  S
Fe244       O247   2.062       .  S
Fe244       O251   2.071       .  S
Fe244       O255   2.078       .  S
Fe244       O260   2.051       .  S
Fe244       O254   1.978       .  S
Fe245       O263   2.095       .  S
Fe245       O250   2.087       .  S
Fe245       O257   2.087       .  S
Fe245       O246   2.105       .  S
Fe245       O254   1.985       .  S
O246        C253   1.275       .  A
O247        C261   1.268       .  A
O248        C253   1.264       .  A
O249        C252   1.264       .  A
O250        C262   1.274       .  A
O251        C264   1.269       .  A
C252        O257   1.273       .  A
C252       C3406   1.483       .  S
C253       C3346   1.490       .  S
O255        C258   1.269       .  A
O256        C258   1.261       .  A
C258       C3186   1.476       .  S
O259        C264   1.267       .  A
O260        C262   1.268       .  A
C261        O263   1.274       .  A
C261       C3057   1.488       .  S
C262       C3466   1.480       .  S
C264       C3126   1.470       .  S
Fe265       O281   2.055       .  S
Fe265       O271   2.018       .  S
Fe265       O278   2.035       .  S
Fe265       O270   2.054       .  S
Fe265       O276   1.964       .  S
Fe266       O269   2.069       .  S
Fe266       O273   2.072       .  S
Fe266       O277   2.083       .  S
Fe266       O282   2.043       .  S
Fe266       O276   1.973       .  S
Fe267       O285   2.063       .  S
Fe267       O272   2.082       .  S
Fe267       O279   2.094       .  S
Fe267       O268   2.086       .  S
Fe267       O276   1.989       .  S
O268        C275   1.274       .  A
O269        C283   1.271       .  A
O270        C275   1.269       .  A
O271        C274   1.253       .  A
O272        C284   1.271       .  A
O273        C286   1.270       .  A
C274        O279   1.268       .  A
C274       C3037   1.509       .  S
C275       C3017   1.472       .  S
O277        C280   1.267       .  A
O278        C280   1.261       .  A
C280       C2986   1.497       .  S
O281        C286   1.267       .  A
O282        C284   1.266       .  A
C283        O285   1.270       .  A
C283       C3286   1.474       .  S
C284       C2957   1.484       .  S
C286       C2997   1.472       .  S
Fe287       O303   2.076       .  S
Fe287       O293   2.058       .  S
Fe287       O300   2.059       .  S
Fe287       O292   2.042       .  S
Fe287       O298   1.949       .  S
Fe288       O291   2.068       .  S
Fe288       O295   2.068       .  S
Fe288       O299   2.074       .  S
Fe288       O304   2.058       .  S
Fe288       O298   1.965       .  S
Fe289       O307   2.076       .  S
Fe289       O294   2.100       .  S
Fe289       O301   2.087       .  S
Fe289       O290   2.086       .  S
Fe289       O298   1.964       .  S
O290        C297   1.272       .  A
O291        C305   1.265       .  A
O292        C297   1.266       .  A
O293        C296   1.270       .  A
O294        C306   1.279       .  A
O295        C308   1.272       .  A
C296        O301   1.273       .  A
C296       C2926   1.496       .  S
C297       C2897   1.479       .  S
O299        C302   1.266       .  A
O300        C302   1.264       .  A
C302       C2937   1.490       .  S
O303        C308   1.273       .  A
O304        C306   1.273       .  A
C305        O307   1.267       .  A
C305       C2857   1.502       .  S
C306       C2886   1.485       .  S
C308       C2977   1.476       .  S
Fe309       O325   2.063       .  S
Fe309       O315   2.032       .  S
Fe309       O322   2.040       .  S
Fe309       O314   2.070       .  S
Fe309       O320   1.928       .  S
Fe310       O313   2.082       .  S
Fe310       O317   2.058       .  S
Fe310       O321   2.096       .  S
Fe310       O326   2.055       .  S
Fe310       O320   1.954       .  S
Fe311       O329   2.086       .  S
Fe311       O316   2.100       .  S
Fe311       O323   2.121       .  S
Fe311       O312   2.091       .  S
Fe311       O320   1.949       .  S
O312        C319   1.274       .  A
O313        C327   1.275       .  A
O314        C319   1.267       .  A
O315        C318   1.262       .  A
O316        C328   1.276       .  A
O317        C330   1.265       .  A
C318        O323   1.277       .  A
C318       C2826   1.486       .  S
C319       C2837   1.504       .  S
O321        C324   1.274       .  A
O322        C324   1.265       .  A
C324       C3006   1.478       .  S
O325        C330   1.267       .  A
O326        C328   1.269       .  A
C327        O329   1.277       .  A
C327       C2806   1.496       .  S
C328       C3366   1.478       .  S
C330       C2946   1.466       .  S
Fe331       O347   2.043       .  S
Fe331       O337   2.048       .  S
Fe331       O344   2.050       .  S
Fe331       O336   2.037       .  S
Fe331       O342   1.958       .  S
Fe332       O335   2.057       .  S
Fe332       O339   2.079       .  S
Fe332       O343   2.070       .  S
Fe332       O348   2.067       .  S
Fe332       O342   1.978       .  S
Fe333       O351   2.088       .  S
Fe333       O338   2.079       .  S
Fe333       O345   2.085       .  S
Fe333       O334   2.093       .  S
Fe333       O342   1.980       .  S
O334        C341   1.272       .  A
O335        C349   1.269       .  A
O336        C341   1.263       .  A
O337        C340   1.267       .  A
O338        C350   1.272       .  A
O339        C352   1.268       .  A
C340        O345   1.272       .  A
C340       C2917   1.483       .  S
C341       C3026   1.480       .  S
O343        C346   1.270       .  A
O344        C346   1.267       .  A
C346       C2777   1.471       .  S
O347        C352   1.264       .  A
O348        C350   1.269       .  A
C349        O351   1.274       .  A
C349       C3146   1.483       .  S
C350       C2737   1.491       .  S
C352       C2757   1.473       .  S
Fe353       O369   2.045       .  S
Fe353       O359   2.066       .  S
Fe353       O366   2.078       .  S
Fe353       O358   2.051       .  S
Fe353       O364   1.964       .  S
Fe354       O357   2.056       .  S
Fe354       O361   2.075       .  S
Fe354       O365   2.062       .  S
Fe354       O370   2.062       .  S
Fe354       O364   1.966       .  S
Fe355       O373   2.093       .  S
Fe355       O360   2.068       .  S
Fe355       O367   2.075       .  S
Fe355       O356   2.104       .  S
Fe355       O364   1.986       .  S
O356        C363   1.274       .  A
O357        C371   1.269       .  A
O358        C363   1.268       .  A
O359        C362   1.269       .  A
O360        C372   1.269       .  A
O361        C374   1.268       .  A
C362        O367   1.269       .  A
C362       C3046   1.480       .  S
C363       C2846   1.488       .  S
O365        C368   1.266       .  A
O366        C368   1.270       .  A
C368       C2726   1.504       .  S
O369        C374   1.265       .  A
O370        C372   1.268       .  A
C371        O373   1.275       .  A
C371       C2677   1.490       .  S
C372       C2706   1.476       .  S
C374       C2786   1.475       .  S
Fe375       O391   2.045       .  S
Fe375       O381   2.055       .  S
Fe375       O388   2.057       .  S
Fe375       O380   2.045       .  S
Fe375       O386   1.967       .  S
Fe376       O379   2.057       .  S
Fe376       O383   2.076       .  S
Fe376       O387   2.068       .  S
Fe376       O392   2.064       .  S
Fe376       O386   1.980       .  S
Fe377       O395   2.084       .  S
Fe377       O382   2.071       .  S
Fe377       O389   2.081       .  S
Fe377       O378   2.081       .  S
Fe377       O386   1.989       .  S
O378        C385   1.270       .  A
O379        C393   1.268       .  A
O380        C385   1.264       .  A
O381        C384   1.267       .  A
O382        C394   1.269       .  A
O383        C396   1.268       .  A
C384        O389   1.271       .  A
C384       C2817   1.477       .  S
C385       C2906   1.474       .  S
O387        C390   1.268       .  A
O388        C390   1.268       .  A
C390       C2766   1.483       .  S
O391        C396   1.265       .  A
O392        C394   1.269       .  A
C393        O395   1.272       .  A
C393       C2666   1.487       .  S
C394       C3086   1.483       .  S
C396       C2717   1.471       .  S
Fe397       O413   2.042       .  S
Fe397       O403   2.070       .  S
Fe397       O410   2.077       .  S
Fe397       O402   2.042       .  S
Fe397       O408   1.947       .  S
Fe398       O401   2.061       .  S
Fe398       O405   2.099       .  S
Fe398       O409   2.074       .  S
Fe398       O414   2.084       .  S
Fe398       O408   1.966       .  S
Fe399       O417   2.086       .  S
Fe399       O404   2.069       .  S
Fe399       O411   2.093       .  S
Fe399       O400   2.091       .  S
Fe399       O408   1.968       .  S
O400        C407   1.274       .  A
O401        C415   1.269       .  A
O402        C407   1.268       .  A
O403        C406   1.268       .  A
O404        C416   1.270       .  A
O405        C418   1.274       .  A
C406        O411   1.272       .  A
C406       C2617   1.499       .  S
C407       C2577   1.484       .  S
O409        C412   1.268       .  A
O410        C412   1.271       .  A
C412       C2597   1.483       .  S
O413        C418   1.264       .  A
O414        C416   1.274       .  A
C415        O417   1.273       .  A
C415       C3666   1.492       .  S
C416       C2797   1.484       .  S
C418       C2637   1.493       .  S
Fe419       O435   2.051       .  S
Fe419       O425   2.073       .  S
Fe419       O432   2.052       .  S
Fe419       O424   2.046       .  S
Fe419       O430   1.944       .  S
Fe420       O423   2.061       .  S
Fe420       O427   2.093       .  S
Fe420       O431   2.093       .  S
Fe420       O436   2.093       .  S
Fe420       O430   1.957       .  S
Fe421       O439   2.085       .  S
Fe421       O426   2.070       .  S
Fe421       O433   2.076       .  S
Fe421       O422   2.103       .  S
Fe421       O430   1.973       .  S
O422        C429   1.273       .  A
O423        C437   1.267       .  A
O424        C429   1.264       .  A
O425        C428   1.270       .  A
O426        C438   1.273       .  A
O427        C440   1.274       .  A
C428        O433   1.270       .  A
C428       C2526   1.479       .  S
C429       C2546   1.500       .  S
O431        C434   1.271       .  A
O432        C434   1.264       .  A
C434       C2557   1.486       .  S
O435        C440   1.269       .  A
O436        C438   1.278       .  A
C437        O439   1.270       .  A
C437       C2877   1.496       .  S
C438       C2497   1.482       .  S
C440       C2606   1.507       .  S
Fe441       O457   2.082       .  S
Fe441       O447   2.051       .  S
Fe441       O454   2.062       .  S
Fe441       O446   2.071       .  S
Fe441       O452   1.955       .  S
Fe442       O445   2.073       .  S
Fe442       O449   2.079       .  S
Fe442       O453   2.080       .  S
Fe442       O458   2.058       .  S
Fe442       O452   1.957       .  S
Fe443       O461   2.073       .  S
Fe443       O448   2.107       .  S
Fe443       O455   2.106       .  S
Fe443       O444   2.082       .  S
Fe443       O452   1.972       .  S
O444        C451   1.270       .  A
O445        C459   1.268       .  A
O446        C451   1.270       .  A
O447        C450   1.268       .  A
O448        C460   1.278       .  A
O449        C462   1.271       .  A
C450        O455   1.277       .  A
C450       C2477   1.492       .  S
C451       C2457   1.481       .  S
O453        C456   1.270       .  A
O454        C456   1.268       .  A
C456       C2646   1.491       .  S
O457        C462   1.272       .  A
O458        C460   1.270       .  A
C459        O461   1.269       .  A
C459       C2446   1.479       .  S
C460       C3737   1.505       .  S
C462       C2566   1.503       .  S
Fe463       O479   2.040       .  S
Fe463       O469   2.084       .  S
Fe463       O476   2.066       .  S
Fe463       O468   2.031       .  S
Fe463       O474   1.937       .  S
Fe464       O467   2.055       .  S
Fe464       O471   2.107       .  S
Fe464       O475   2.072       .  S
Fe464       O480   2.077       .  S
Fe464       O474   1.955       .  S
Fe465       O483   2.079       .  S
Fe465       O470   2.073       .  S
Fe465       O477   2.065       .  S
Fe465       O466   2.113       .  S
Fe465       O474   1.971       .  S
O466        C473   1.274       .  A
O467        C481   1.269       .  A
O468        C473   1.257       .  A
O469        C472   1.273       .  A
O470        C482   1.275       .  A
O471        C484   1.280       .  A
C472        O477   1.268       .  A
C472       C2517   1.492       .  S
C473       C2586   1.491       .  S
O475        C478   1.265       .  A
O476        C478   1.267       .  A
C478       C2406   1.485       .  S
O479        C484   1.267       .  A
O480        C482   1.275       .  A
C481        O483   1.272       .  A
C481       C3506   1.488       .  S
C482       C2377   1.490       .  S
C484       C2417   1.475       .  S
Fe485       O501   2.045       .  S
Fe485       O491   2.042       .  S
Fe485       O498   2.062       .  S
Fe485       O490   2.046       .  S
Fe485       O496   1.953       .  S
Fe486       O489   2.062       .  S
Fe486       O493   2.084       .  S
Fe486       O497   2.074       .  S
Fe486       O502   2.055       .  S
Fe486       O496   1.965       .  S
Fe487       O505   2.093       .  S
Fe487       O492   2.079       .  S
Fe487       O499   2.096       .  S
Fe487       O488   2.101       .  S
Fe487       O496   1.976       .  S
O488        C495   1.278       .  A
O489        C503   1.272       .  A
O490        C495   1.271       .  A
O491        C494   1.262       .  A
O492        C504   1.269       .  A
O493        C506   1.272       .  A
C494        O499   1.270       .  A
C494       C2486   1.493       .  S
C495       C2537   1.480       .  S
O497        C500   1.266       .  A
O498        C500   1.263       .  A
C500       C2426   1.503       .  S
O501        C506   1.267       .  A
O502        C504   1.265       .  A
C503        O505   1.278       .  A
C503       C2746   1.478       .  S
C504       C3566   1.482       .  S
C506       C2357   1.472       .  S
Fe507       O523   2.042       .  S
Fe507       O513   2.055       .  S
Fe507       O520   2.044       .  S
Fe507       O512   2.042       .  S
Fe507       O518   1.968       .  S
Fe508       O511   2.065       .  S
Fe508       O515   2.088       .  S
Fe508       O519   2.068       .  S
Fe508       O524   2.074       .  S
Fe508       O518   1.984       .  S
Fe509       O527   2.088       .  S
Fe509       O514   2.080       .  S
Fe509       O521   2.095       .  S
Fe509       O510   2.102       .  S
Fe509       O518   1.984       .  S
O510        C517   1.272       .  A
O511        C525   1.269       .  A
O512        C517   1.262       .  A
O513        C516   1.268       .  A
O514        C526   1.273       .  A
O515        C528   1.272       .  A
C516        O521   1.274       .  A
C516       C2626   1.492       .  S
C517       C2466   1.488       .  S
O519        C522   1.268       .  A
O520        C522   1.265       .  A
C522       C2366   1.468       .  S
O523        C528   1.264       .  A
O524        C526   1.272       .  A
C525        O527   1.272       .  A
C525       C2337   1.489       .  S
C526       C2686   1.490       .  S
C528       C2397   1.481       .  S
Fe529       O545   2.072       .  S
Fe529       O535   2.041       .  S
Fe529       O542   2.043       .  S
Fe529       O534   2.064       .  S
Fe529       O540   1.954       .  S
Fe530       O533   2.068       .  S
Fe530       O537   2.058       .  S
Fe530       O541   2.088       .  S
Fe530       O546   2.068       .  S
Fe530       O540   1.967       .  S
Fe531       O549   2.060       .  S
Fe531       O536   2.074       .  S
Fe531       O543   2.092       .  S
Fe531       O532   2.074       .  S
Fe531       O540   1.969       .  S
O532        C539   1.267       .  A
O533        C547   1.269       .  A
O534        C539   1.266       .  A
O535        C538   1.268       .  A
O536        C548   1.272       .  A
O537        C550   1.266       .  A
C538        O543   1.276       .  A
C538       C2297   1.483       .  S
C539       C2317   1.492       .  S
O541        C544   1.269       .  A
O542        C544   1.265       .  A
C544       C2257   1.492       .  S
O545        C550   1.270       .  A
O546        C548   1.273       .  A
C547        O549   1.267       .  A
C547       C2246   1.487       .  S
C548       C3817   1.482       .  S
C550       C2286   1.477       .  S
Fe551       O567   2.059       .  S
Fe551       O557   2.055       .  S
Fe551       O564   2.054       .  S
Fe551       O556   2.046       .  S
Fe551       O562   1.953       .  S
Fe552       O555   2.047       .  S
Fe552       O559   2.094       .  S
Fe552       O563   2.052       .  S
Fe552       O568   2.068       .  S
Fe552       O562   1.965       .  S
Fe553       O571   2.083       .  S
Fe553       O558   2.078       .  S
Fe553       O565   2.074       .  S
Fe553       O554   2.098       .  S
Fe553       O562   1.969       .  S
O554        C561   1.274       .  A
O555        C569   1.265       .  A
O556        C561   1.266       .  A
O557        C560   1.265       .  A
O558        C570   1.273       .  A
O559        C572   1.276       .  A
C560        O565   1.269       .  A
C560       C2306   1.492       .  S
C561       C2206   1.474       .  S
O563        C566   1.262       .  A
O564        C566   1.265       .  A
C566       C2226   1.476       .  S
O567        C572   1.271       .  A
O568        C570   1.272       .  A
C569        O571   1.270       .  A
C569       C2166   1.490       .  S
C570       C3517   1.481       .  S
C572       C2186   1.481       .  S
Fe573       O589   2.054       .  S
Fe573       O579   2.046       .  S
Fe573       O586   2.047       .  S
Fe573       O578   2.064       .  S
Fe573       O584   1.950       .  S
Fe574       O577   2.066       .  S
Fe574       O581   2.086       .  S
Fe574       O585   2.079       .  S
Fe574       O590   2.050       .  S
Fe574       O584   1.964       .  S
Fe575       O593   2.079       .  S
Fe575       O580   2.095       .  S
Fe575       O587   2.103       .  S
Fe575       O576   2.076       .  S
Fe575       O584   1.969       .  S
O576        C583   1.268       .  A
O577        C591   1.269       .  A
O578        C583   1.267       .  A
O579        C582   1.266       .  A
O580        C592   1.275       .  A
O581        C594   1.270       .  A
C582        O587   1.277       .  A
C582       C2146   1.497       .  S
C583       C2197   1.483       .  S
O585        C588   1.271       .  A
O586        C588   1.270       .  A
C588       C2277   1.490       .  S
O589        C594   1.263       .  A
O590        C592   1.268       .  A
C591        O593   1.272       .  A
C591       C2106   1.497       .  S
C592       C2077   1.488       .  S
C594       C2117   1.478       .  S
Fe595       O611   2.070       .  S
Fe595       O601   2.043       .  S
Fe595       O608   2.056       .  S
Fe595       O600   2.079       .  S
Fe595       O606   1.921       .  S
Fe596       O599   2.093       .  S
Fe596       O603   2.057       .  S
Fe596       O607   2.095       .  S
Fe596       O612   2.048       .  S
Fe596       O606   1.938       .  S
Fe597       O615   2.054       .  S
Fe597       O602   2.099       .  S
Fe597       O609   2.111       .  S
Fe597       O598   2.065       .  S
Fe597       O606   1.949       .  S
O598        C605   1.270       .  A
O599        C613   1.276       .  A
O600        C605   1.272       .  A
O601        C604   1.264       .  A
O602        C614   1.275       .  A
O603        C616   1.268       .  A
C604        O609   1.276       .  A
C604       C2057   1.487       .  S
C605       C2037   1.476       .  S
O607        C610   1.273       .  A
O608        C610   1.267       .  A
C610       C2126   1.494       .  S
O611        C616   1.271       .  A
O612        C614   1.266       .  A
C613        O615   1.271       .  A
C613       C3717   1.479       .  S
C614       C2017   1.491       .  S
C616       C2266   1.464       .  S
Fe617       O633   2.048       .  S
Fe617       O623   2.058       .  S
Fe617       O630   2.065       .  S
Fe617       O622   2.041       .  S
Fe617       O628   1.946       .  S
Fe618       O621   2.061       .  S
Fe618       O625   2.092       .  S
Fe618       O629   2.075       .  S
Fe618       O634   2.079       .  S
Fe618       O628   1.953       .  S
Fe619       O637   2.105       .  S
Fe619       O624   2.055       .  S
Fe619       O631   2.082       .  S
Fe619       O620   2.111       .  S
Fe619       O628   1.959       .  S
O620        C627   1.279       .  A
O621        C635   1.272       .  A
O622        C627   1.269       .  A
O623        C626   1.265       .  A
O624        C636   1.264       .  A
O625        C638   1.273       .  A
C626        O631   1.269       .  A
C626       C2066   1.478       .  S
C627       C2326   1.493       .  S
O629        C632   1.269       .  A
O630        C632   1.265       .  A
C632       C2177   1.507       .  S
O633        C638   1.266       .  A
O634        C636   1.270       .  A
C635        O637   1.280       .  A
C635       C1977   1.498       .  S
C636       C1966   1.472       .  S
C638       C1997   1.479       .  S
Fe639       O655   2.040       .  S
Fe639       O645   2.062       .  S
Fe639       O652   2.073       .  S
Fe639       O644   2.032       .  S
Fe639       O650   1.938       .  S
Fe640       O643   2.046       .  S
Fe640       O647   2.068       .  S
Fe640       O651   2.069       .  S
Fe640       O656   2.071       .  S
Fe640       O650   1.948       .  S
Fe641       O659   2.114       .  S
Fe641       O646   2.080       .  S
Fe641       O653   2.083       .  S
Fe641       O642   2.104       .  S
Fe641       O650   1.956       .  S
O642        C649   1.275       .  A
O643        C657   1.268       .  A
O644        C649   1.262       .  A
O645        C648   1.271       .  A
O646        C658   1.270       .  A
O647        C660   1.264       .  A
C648        O653   1.275       .  A
C648       C2137   1.474       .  S
C649       C2046   1.479       .  S
O651        C654   1.273       .  A
O652        C654   1.274       .  A
C654       C2006   1.472       .  S
O655        C660   1.261       .  A
O656        C658   1.266       .  A
C657        O659   1.279       .  A
C657       C3486   1.492       .  S
C658       C1937   1.506       .  S
C660       C2217   1.464       .  S
Fe661       O677   2.081       .  S
Fe661       O667   2.027       .  S
Fe661       O674   2.041       .  S
Fe661       O666   2.077       .  S
Fe661       O672   1.947       .  S
Fe662       O665   2.074       .  S
Fe662       O669   2.064       .  S
Fe662       O673   2.085       .  S
Fe662       O678   2.039       .  S
Fe662       O672   1.958       .  S
Fe663       O681   2.084       .  S
Fe663       O668   2.113       .  S
Fe663       O675   2.113       .  S
Fe663       O664   2.087       .  S
Fe663       O672   1.963       .  S
O664        C671   1.272       .  A
O665        C679   1.269       .  A
O666        C671   1.271       .  A
O667        C670   1.261       .  A
O668        C680   1.281       .  A
O669        C682   1.267       .  A
C670        O675   1.279       .  A
C670       C1917   1.492       .  S
C671       C1906   1.493       .  S
O673        C676   1.272       .  A
O674        C676   1.266       .  A
C676       C1877   1.487       .  S
O677        C682   1.271       .  A
O678        C680   1.267       .  A
C679        O681   1.272       .  A
C679       C1837   1.498       .  S
C680       C2097   1.477       .  S
C682       C1857   1.488       .  S
Fe683       O699   2.035       .  S
Fe683       O689   2.054       .  S
Fe683       O696   2.088       .  S
Fe683       O688   2.043       .  S
Fe683       O694   1.936       .  S
Fe684       O687   2.052       .  S
Fe684       O691   2.101       .  S
Fe684       O695   2.058       .  S
Fe684       O700   2.095       .  S
Fe684       O694   1.952       .  S
Fe685       O703   2.105       .  S
Fe685       O690   2.062       .  S
Fe685       O697   2.095       .  S
Fe685       O686   2.106       .  S
Fe685       O694   1.957       .  S
O686        C693   1.277       .  A
O687        C701   1.266       .  A
O688        C693   1.269       .  A
O689        C692   1.267       .  A
O690        C702   1.271       .  A
O691        C704   1.274       .  A
C692        O697   1.275       .  A
C692       C1797   1.495       .  S
C693       C1817   1.496       .  S
O695        C698   1.267       .  A
O696        C698   1.274       .  A
C698       C1866   1.483       .  S
O699        C704   1.260       .  A
O700        C702   1.276       .  A
C701        O703   1.276       .  A
C701       C2506   1.502       .  S
C702       C1766   1.488       .  S
C704       C1777   1.487       .  S
Fe705       O721   2.035       .  S
Fe705       O711   2.051       .  S
Fe705       O718   2.064       .  S
Fe705       O710   2.036       .  S
Fe705       O716   1.954       .  S
Fe706       O709   2.048       .  S
Fe706       O713   2.074       .  S
Fe706       O717   2.056       .  S
Fe706       O722   2.069       .  S
Fe706       O716   1.970       .  S
Fe707       O725   2.090       .  S
Fe707       O712   2.084       .  S
Fe707       O719   2.094       .  S
Fe707       O708   2.093       .  S
Fe707       O716   1.973       .  S
O708        C715   1.271       .  A
O709        C723   1.267       .  A
O710        C715   1.262       .  A
O711        C714   1.268       .  A
O712        C724   1.274       .  A
O713        C726   1.267       .  A
C714        O719   1.276       .  A
C714       C1746   1.478       .  S
C715       C1717   1.475       .  S
O717        C720   1.267       .  A
O718        C720   1.269       .  A
C720       C1786   1.465       .  S
O721        C726   1.261       .  A
O722        C724   1.270       .  A
C723        O725   1.272       .  A
C723       C2026   1.472       .  S
C724       C2437   1.492       .  S
C726       C1886   1.472       .  S
Fe727       O743   2.075       .  S
Fe727       O733   2.046       .  S
Fe727       O740   2.052       .  S
Fe727       O732   2.076       .  S
Fe727       O738   1.951       .  S
Fe728       O731   2.059       .  S
Fe728       O735   2.074       .  S
Fe728       O739   2.088       .  S
Fe728       O744   2.062       .  S
Fe728       O738   1.963       .  S
Fe729       O747   2.080       .  S
Fe729       O734   2.106       .  S
Fe729       O741   2.117       .  S
Fe729       O730   2.074       .  S
Fe729       O738   1.968       .  S
O730        C737   1.268       .  A
O731        C745   1.267       .  A
O732        C737   1.269       .  A
O733        C736   1.267       .  A
O734        C746   1.278       .  A
O735        C748   1.267       .  A
C736        O741   1.280       .  A
C736       C1737   1.503       .  S
C737       C1897   1.485       .  S
O739        C742   1.274       .  A
O740        C742   1.269       .  A
C742       C1697   1.474       .  S
O743        C748   1.269       .  A
O744        C746   1.271       .  A
C745        O747   1.271       .  A
C745       C1666   1.478       .  S
C746       C2346   1.507       .  S
C748       C1677   1.497       .  S
Fe749       O765   2.052       .  S
Fe749       O755   2.044       .  S
Fe749       O762   2.039       .  S
Fe749       O754   2.060       .  S
Fe749       O760   1.946       .  S
Fe750       O753   2.071       .  S
Fe750       O757   2.068       .  S
Fe750       O761   2.094       .  S
Fe750       O766   2.055       .  S
Fe750       O760   1.963       .  S
Fe751       O769   2.069       .  S
Fe751       O756   2.076       .  S
Fe751       O763   2.092       .  S
Fe751       O752   2.080       .  S
Fe751       O760   1.970       .  S
O752        C759   1.269       .  A
O753        C767   1.270       .  A
O754        C759   1.268       .  A
O755        C758   1.266       .  A
O756        C768   1.272       .  A
O757        C770   1.266       .  A
C758        O763   1.273       .  A
C758       C1926   1.474       .  S
C759       C1826   1.486       .  S
O761        C764   1.273       .  A
O762        C764   1.265       .  A
C764       C1637   1.475       .  S
O765        C770   1.265       .  A
O766        C768   1.270       .  A
C767        O769   1.270       .  A
C767       C2386   1.480       .  S
C768       C2157   1.475       .  S
C770       C1706   1.492       .  S
Fe771       O787   2.049       .  S
Fe771       O777   2.077       .  S
Fe771       O784   2.072       .  S
Fe771       O776   2.035       .  S
Fe771       O782   1.940       .  S
Fe772       O775   2.043       .  S
Fe772       O779   2.089       .  S
Fe772       O783   2.073       .  S
Fe772       O788   2.088       .  S
Fe772       O782   1.947       .  S
Fe773       O791   2.106       .  S
Fe773       O778   2.073       .  S
Fe773       O785   2.080       .  S
Fe773       O774   2.113       .  S
Fe773       O782   1.964       .  S
O774        C781   1.277       .  A
O775        C789   1.266       .  A
O776        C781   1.263       .  A
O777        C780   1.272       .  A
O778        C790   1.273       .  A
O779        C792   1.271       .  A
C780        O785   1.271       .  A
C780       C1806   1.481       .  S
C781       C1726   1.483       .  S
O783        C786   1.270       .  A
O784        C786   1.270       .  A
C786       C1686   1.478       .  S
O787        C792   1.267       .  A
O788        C790   1.273       .  A
C789        O791   1.276       .  A
C789       C1957   1.491       .  S
C790       C1617   1.494       .  S
C792       C1646   1.502       .  S
Fe793       O809   2.044       .  S
Fe793       O799   2.056       .  S
Fe793       O806   2.057       .  S
Fe793       O798   2.046       .  S
Fe793       O804   1.964       .  S
Fe794       O797   2.068       .  S
Fe794       O801   2.086       .  S
Fe794       O805   2.081       .  S
Fe794       O810   2.069       .  S
Fe794       O804   1.972       .  S
Fe795       O813   2.073       .  S
Fe795       O800   2.070       .  S
Fe795       O807   2.070       .  S
Fe795       O796   2.094       .  S
Fe795       O804   1.979       .  S
O796        C803   1.272       .  A
O797        C811   1.270       .  A
O798        C803   1.266       .  A
O799        C802   1.267       .  A
O800        C812   1.271       .  A
O801        C814   1.271       .  A
C802        O807   1.269       .  A
C802       C1557   1.484       .  S
C803       C1546   1.479       .  S
O805        C808   1.271       .  A
O806        C808   1.267       .  A
C808       C1597   1.493       .  S
O809        C814   1.265       .  A
O810        C812   1.271       .  A
C811        O813   1.270       .  A
C811       C3097   1.485       .  S
C812       C1526   1.477       .  S
C814       C1577   1.473       .  S
Fe815       O831   2.075       .  S
Fe815       O821   2.051       .  S
Fe815       O828   2.040       .  S
Fe815       O820   2.065       .  S
Fe815       O826   1.949       .  S
Fe816       O819   2.076       .  S
Fe816       O823   2.068       .  S
Fe816       O827   2.099       .  S
Fe816       O832   2.066       .  S
Fe816       O826   1.970       .  S
Fe817       O835   2.058       .  S
Fe817       O822   2.089       .  S
Fe817       O829   2.111       .  S
Fe817       O818   2.068       .  S
Fe817       O826   1.974       .  S
O818        C825   1.266       .  A
O819        C833   1.273       .  A
O820        C825   1.268       .  A
O821        C824   1.269       .  A
O822        C834   1.273       .  A
O823        C836   1.267       .  A
C824        O829   1.278       .  A
C824       C1477   1.490       .  S
C825       C1466   1.482       .  S
O827        C830   1.274       .  A
O828        C830   1.264       .  A
C830       C1506   1.495       .  S
O831        C836   1.270       .  A
O832        C834   1.271       .  A
C833        O835   1.269       .  A
C833       C1437   1.488       .  S
C834       C1986   1.487       .  S
C836       C1606   1.480       .  S
Fe837       O853   2.050       .  S
Fe837       O843   2.070       .  S
Fe837       O850   2.076       .  S
Fe837       O842   2.038       .  S
Fe837       O848   1.963       .  S
Fe838       O841   2.058       .  S
Fe838       O845   2.095       .  S
Fe838       O849   2.072       .  S
Fe838       O854   2.082       .  S
Fe838       O848   1.967       .  S
Fe839       O857   2.092       .  S
Fe839       O844   2.086       .  S
Fe839       O851   2.088       .  S
Fe839       O840   2.096       .  S
Fe839       O848   1.975       .  S
O840        C847   1.275       .  A
O841        C855   1.270       .  A
O842        C847   1.263       .  A
O843        C846   1.270       .  A
O844        C856   1.272       .  A
O845        C858   1.275       .  A
C846        O851   1.271       .  A
C846       C1426   1.486       .  S
C847       C1397   1.484       .  S
O849        C852   1.268       .  A
O850        C852   1.270       .  A
C852       C1586   1.495       .  S
O853        C858   1.266       .  A
O854        C856   1.272       .  A
C855        O857   1.275       .  A
C855       C1946   1.486       .  S
C856       C3066   1.504       .  S
C858       C1497   1.487       .  S
Fe859       O875   2.050       .  S
Fe859       O865   2.049       .  S
Fe859       O872   2.054       .  S
Fe859       O864   2.045       .  S
Fe859       O870   1.964       .  S
Fe860       O863   2.066       .  S
Fe860       O867   2.080       .  S
Fe860       O871   2.077       .  S
Fe860       O876   2.072       .  S
Fe860       O870   1.976       .  S
Fe861       O879   2.073       .  S
Fe861       O866   2.070       .  S
Fe861       O873   2.077       .  S
Fe861       O862   2.083       .  S
Fe861       O870   1.990       .  S
O862        C869   1.268       .  A
O863        C877   1.269       .  A
O864        C869   1.264       .  A
O865        C868   1.268       .  A
O866        C878   1.272       .  A
O867        C880   1.270       .  A
C868        O873   1.271       .  A
C868       C1566   1.478       .  S
C869       C1406   1.472       .  S
O871        C874   1.270       .  A
O872        C874   1.267       .  A
C874       C1366   1.482       .  S
O875        C880   1.266       .  A
O876        C878   1.273       .  A
C877        O879   1.267       .  A
C877       C2086   1.488       .  S
C878       C1346   1.479       .  S
C880       C1377   1.481       .  S
Fe881       O897   2.044       .  S
Fe881       O887   2.051       .  S
Fe881       O894   2.080       .  S
Fe881       O886   2.042       .  S
Fe881       O892   1.954       .  S
Fe882       O885   2.063       .  S
Fe882       O889   2.101       .  S
Fe882       O893   2.060       .  S
Fe882       O898   2.079       .  S
Fe882       O892   1.970       .  S
Fe883       O901   2.091       .  S
Fe883       O888   2.070       .  S
Fe883       O895   2.092       .  S
Fe883       O884   2.093       .  S
Fe883       O892   1.975       .  S
O884        C891   1.274       .  A
O885        C899   1.273       .  A
O886        C891   1.268       .  A
O887        C890   1.265       .  A
O888        C900   1.269       .  A
O889        C902   1.274       .  A
C890        O895   1.271       .  A
C890       C1417   1.494       .  S
C891       C1457   1.495       .  S
O893        C896   1.266       .  A
O894        C896   1.272       .  A
C896       C1317   1.477       .  S
O897        C902   1.262       .  A
O898        C900   1.270       .  A
C899        O901   1.276       .  A
C899       C1306   1.482       .  S
C900       C3257   1.494       .  S
C902       C1357   1.494       .  S
Fe903       O919   2.061       .  S
Fe903       O909   2.041       .  S
Fe903       O916   2.048       .  S
Fe903       O908   2.078       .  S
Fe903       O914   1.954       .  S
Fe904       O907   2.073       .  S
Fe904       O911   2.077       .  S
Fe904       O915   2.097       .  S
Fe904       O920   2.052       .  S
Fe904       O914   1.972       .  S
Fe905       O923   2.079       .  S
Fe905       O910   2.078       .  S
Fe905       O917   2.107       .  S
Fe905       O906   2.067       .  S
Fe905       O914   1.976       .  S
O906        C913   1.267       .  A
O907        C921   1.271       .  A
O908        C913   1.271       .  A
O909        C912   1.262       .  A
O910        C922   1.271       .  A
O911        C924   1.268       .  A
C912        O917   1.275       .  A
C912       C1486   1.496       .  S
C913       C1537   1.482       .  S
O915        C918   1.275       .  A
O916        C918   1.268       .  A
C918       C1386   1.493       .  S
O919        C924   1.267       .  A
O920        C922   1.268       .  A
C921        O923   1.274       .  A
C921       C3197   1.482       .  S
C922       C2237   1.491       .  S
C924       C1326   1.489       .  S
Fe925       O941   2.037       .  S
Fe925       O931   2.061       .  S
Fe925       O938   2.063       .  S
Fe925       O930   2.045       .  S
Fe925       O936   1.962       .  S
Fe926       O929   2.060       .  S
Fe926       O933   2.080       .  S
Fe926       O937   2.072       .  S
Fe926       O942   2.074       .  S
Fe926       O936   1.978       .  S
Fe927       O945   2.064       .  S
Fe927       O932   2.083       .  S
Fe927       O939   2.093       .  S
Fe927       O928   2.066       .  S
Fe927       O936   1.980       .  S
O928        C935   1.264       .  A
O929        C943   1.267       .  A
O930        C935   1.263       .  A
O931        C934   1.270       .  A
O932        C944   1.274       .  A
O933        C946   1.270       .  A
C934        O939   1.276       .  A
C934       C1257   1.490       .  S
C935       C1226   1.464       .  S
O937        C940   1.269       .  A
O938        C940   1.269       .  A
C940       C1246   1.487       .  S
O941        C946   1.264       .  A
O942        C944   1.273       .  A
C943        O945   1.266       .  A
C943       C2697   1.477       .  S
C944       C1657   1.497       .  S
C946       C1277   1.470       .  S
Fe947       O963   2.032       .  S
Fe947       O953   2.079       .  S
Fe947       O960   2.081       .  S
Fe947       O952   2.045       .  S
Fe947       O958   1.948       .  S
Fe948       O951   2.051       .  S
Fe948       O955   2.110       .  S
Fe948       O959   2.059       .  S
Fe948       O964   2.100       .  S
Fe948       O958   1.962       .  S
Fe949       O967   2.100       .  S
Fe949       O954   2.083       .  S
Fe949       O961   2.086       .  S
Fe949       O950   2.115       .  S
Fe949       O958   1.967       .  S
O950        C957   1.279       .  A
O951        C965   1.266       .  A
O952        C957   1.266       .  A
O953        C956   1.271       .  A
O954        C966   1.274       .  A
O955        C968   1.277       .  A
C956        O961   1.271       .  A
C956       C1266   1.496       .  S
C957       C1177   1.482       .  S
O959        C962   1.266       .  A
O960        C962   1.271       .  A
C962       C1166   1.477       .  S
O963        C968   1.261       .  A
O964        C966   1.278       .  A
C965        O967   1.276       .  A
C965       C1337   1.491       .  S
C966       C1846   1.509       .  S
C968       C1206   1.491       .  S
Fe969       O985   2.035       .  S
Fe969       O975   2.059       .  S
Fe969       O982   2.059       .  S
Fe969       O974   2.029       .  S
Fe969       O980   1.950       .  S
Fe970       O973   2.072       .  S
Fe970       O977   2.094       .  S
Fe970       O981   2.087       .  S
Fe970       O986   2.081       .  S
Fe970       O980   1.970       .  S
Fe971       O989   2.076       .  S
Fe971       O976   2.077       .  S
Fe971       O983   2.090       .  S
Fe971       O972   2.082       .  S
Fe971       O980   1.971       .  S
O972        C979   1.267       .  A
O973        C987   1.274       .  A
O974        C979   1.259       .  A
O975        C978   1.271       .  A
O976        C988   1.267       .  A
O977        C990   1.270       .  A
C978        O983   1.275       .  A
C978       C1137   1.486       .  S
C979       C1217   1.467       .  S
O981        C984   1.275       .  A
O982        C984   1.270       .  A
C984       C1197   1.481       .  S
O985        C990   1.261       .  A
O986        C988   1.276       .  A
C987        O989   1.270       .  A
C987       C2966   1.482       .  S
C988       C1297   1.505       .  S
C990       C1126   1.479       .  S
Fe991      O1007   2.074       .  S
Fe991       O997   2.025       .  S
Fe991      O1004   2.035       .  S
Fe991       O996   2.097       .  S
Fe991      O1002   1.940       .  S
Fe992       O995   2.080       .  S
Fe992       O999   2.064       .  S
Fe992      O1003   2.090       .  S
Fe992      O1008   2.046       .  S
Fe992      O1002   1.954       .  S
Fe993      O1011   2.089       .  S
Fe993       O998   2.109       .  S
Fe993      O1005   2.131       .  S
Fe993       O994   2.081       .  S
Fe993      O1002   1.969       .  S
O994       C1001   1.272       .  A
O995       C1009   1.274       .  A
O996       C1001   1.276       .  A
O997       C1000   1.256       .  A
O998       C1010   1.278       .  A
O999       C1012   1.265       .  A
C1000      O1005   1.278       .  A
C1000      C1106   1.495       .  S
C1001      C1077   1.495       .  S
O1003      C1006   1.275       .  A
O1004      C1006   1.266       .  A
C1006      C1117   1.482       .  S
O1007      C1012   1.269       .  A
O1008      C1010   1.266       .  A
C1009      O1011   1.277       .  A
C1009      C1757   1.493       .  S
C1010      C2866   1.486       .  S
C1012      C1157   1.491       .  S
Fe1013     O1029   2.052       .  S
Fe1013     O1019   2.062       .  S
Fe1013     O1026   2.071       .  S
Fe1013     O1018   2.054       .  S
Fe1013     O1024   1.972       .  S
Fe1014     O1017   2.062       .  S
Fe1014     O1021   2.073       .  S
Fe1014     O1025   2.077       .  S
Fe1014     O1030   2.053       .  S
Fe1014     O1024   1.979       .  S
Fe1015     O1033   2.091       .  S
Fe1015     O1020   2.075       .  S
Fe1015     O1027   2.075       .  S
Fe1015     O1016   2.101       .  S
Fe1015     O1024   1.991       .  S
O1016      C1023   1.274       .  A
O1017      C1031   1.270       .  A
O1018      C1023   1.267       .  A
O1019      C1022   1.269       .  A
O1020      C1032   1.270       .  A
O1021      C1034   1.267       .  A
C1022      O1027   1.270       .  A
C1022      C1146   1.486       .  S
C1023      C1086   1.486       .  S
O1025      C1028   1.270       .  A
O1026      C1028   1.271       .  A
C1028      C1057   1.499       .  S
O1029      C1034   1.266       .  A
O1030      C1032   1.267       .  A
C1031      O1033   1.273       .  A
C1031      C1626   1.486       .  S
C1032      C1446   1.477       .  S
C1034      C1237   1.473       .  S
Fe1035     O1051   2.046       .  S
Fe1035     O1041   2.062       .  S
Fe1035     O1048   2.060       .  S
Fe1035     O1040   2.031       .  S
Fe1035     O1046   1.956       .  S
Fe1036     O1039   2.062       .  S
Fe1036     O1043   2.101       .  S
Fe1036     O1047   2.066       .  S
Fe1036     O1052   2.080       .  S
Fe1036     O1046   1.973       .  S
Fe1037     O1055   2.090       .  S
Fe1037     O1042   2.078       .  S
Fe1037     O1049   2.081       .  S
Fe1037     O1038   2.093       .  S
Fe1037     O1046   1.985       .  S
O1038      C1045   1.271       .  A
O1039      C1053   1.270       .  A
O1040      C1045   1.261       .  A
O1041      C1044   1.269       .  A
O1042      C1054   1.271       .  A
O1043      C1056   1.273       .  A
C1044      O1049   1.273       .  A
C1044      C1097   1.477       .  S
C1045      C1186   1.481       .  S
O1047      C1050   1.268       .  A
O1048      C1050   1.268       .  A
C1050      C1286   1.481       .  S
O1051      C1056   1.264       .  A
O1052      C1054   1.272       .  A
C1053      O1055   1.274       .  A
C1053      C1517   1.489       .  S
C1054      C2657   1.485       .  S
C1056      C1066   1.483       .  S
C1057      C1058   1.422       .  A
C1057      C1062   1.417       .  A
C1058      C1059   1.414       .  A
C1058     Br1070   1.933       .  S
C1059      C1060   1.408       .  A
C1059     Br1074   1.930       .  S
C1060      C1063   1.494       .  S
C1060      C1061   1.409       .  A
C1061      C1062   1.411       .  A
C1061     Br1069   1.931       .  S
C1062     Br1073   1.933       .  S
C1063      C1064   1.412       .  A
C1063      C1068   1.409       .  A
C1064      C1065   1.416       .  A
C1064     Br1075   1.925       .  S
C1065      C1066   1.410       .  A
C1065     Br1071   1.926       .  S
C1066      C1067   1.412       .  A
C1067      C1068   1.406       .  A
C1067     Br1076   1.931       .  S
C1068     Br1072   1.930       .  S
C1077      C1078   1.414       .  A
C1077      C1082   1.411       .  A
C1078      C1079   1.416       .  A
C1078     Br1090   1.922       .  S
C1079      C1080   1.412       .  A
C1079     Br1094   1.929       .  S
C1080      C1083   1.498       .  S
C1080      C1081   1.411       .  A
C1081      C1082   1.409       .  A
C1081     Br1089   1.930       .  S
C1082     Br1093   1.927       .  S
C1083      C1084   1.414       .  A
C1083      C1088   1.411       .  A
C1084      C1085   1.416       .  A
C1084     Br1095   1.926       .  S
C1085      C1086   1.410       .  A
C1085     Br1091   1.927       .  S
C1086      C1087   1.411       .  A
C1087      C1088   1.408       .  A
C1087     Br1096   1.931       .  S
C1088     Br1092   1.931       .  S
C1097      C1098   1.410       .  A
C1097      C1102   1.408       .  A
C1098      C1099   1.411       .  A
C1098     Br1110   1.930       .  S
C1099      C1100   1.411       .  A
C1099     Br1114   1.929       .  S
C1100      C1103   1.490       .  S
C1100      C1101   1.410       .  A
C1101      C1102   1.408       .  A
C1101     Br1109   1.928       .  S
C1102     Br1113   1.928       .  S
C1103      C1104   1.410       .  A
C1103      C1108   1.405       .  A
C1104      C1105   1.417       .  A
C1104     Br1115   1.926       .  S
C1105      C1106   1.415       .  A
C1105     Br1111   1.927       .  S
C1106      C1107   1.424       .  A
C1107      C1108   1.403       .  A
C1107     Br1116   1.941       .  S
C1108     Br1112   1.937       .  S
C1117      C1118   1.417       .  A
C1117      C1122   1.416       .  A
C1118      C1119   1.405       .  A
C1118     Br1130   1.933       .  S
C1119      C1120   1.406       .  A
C1119     Br1134   1.932       .  S
C1120      C1123   1.478       .  S
C1120      C1121   1.406       .  A
C1121      C1122   1.406       .  A
C1121     Br1129   1.932       .  S
C1122     Br1133   1.928       .  S
C1123      C1124   1.406       .  A
C1123      C1128   1.407       .  A
C1124      C1125   1.401       .  A
C1124     Br1135   1.934       .  S
C1125      C1126   1.415       .  A
C1125     Br1131   1.933       .  S
C1126      C1127   1.411       .  A
C1127      C1128   1.410       .  A
C1127     Br1136   1.918       .  S
C1128     Br1132   1.929       .  S
C1137      C1138   1.413       .  A
C1137      C1142   1.412       .  A
C1138      C1139   1.414       .  A
C1138     Br1150   1.927       .  S
C1139      C1140   1.413       .  A
C1139     Br1154   1.929       .  S
C1140      C1143   1.493       .  S
C1140      C1141   1.411       .  A
C1141      C1142   1.403       .  A
C1141     Br1149   1.934       .  S
C1142     Br1153   1.932       .  S
C1143      C1144   1.412       .  A
C1143      C1148   1.412       .  A
C1144      C1145   1.412       .  A
C1144     Br1155   1.931       .  S
C1145      C1146   1.415       .  A
C1145     Br1151   1.930       .  S
C1146      C1147   1.412       .  A
C1147      C1148   1.406       .  A
C1147     Br1156   1.933       .  S
C1148     Br1152   1.932       .  S
C1157      C1158   1.415       .  A
C1157      C1162   1.417       .  A
C1158      C1159   1.405       .  A
C1158     Br1170   1.929       .  S
C1159      C1160   1.407       .  A
C1159     Br1174   1.932       .  S
C1160      C1163   1.485       .  S
C1160      C1161   1.409       .  A
C1161      C1162   1.411       .  A
C1161     Br1169   1.930       .  S
C1162     Br1173   1.928       .  S
C1163      C1164   1.412       .  A
C1163      C1168   1.410       .  A
C1164      C1165   1.412       .  A
C1164     Br1175   1.927       .  S
C1165      C1166   1.410       .  A
C1165     Br1171   1.927       .  S
C1166      C1167   1.408       .  A
C1167      C1168   1.401       .  A
C1167     Br1176   1.925       .  S
C1168     Br1172   1.935       .  S
C1177      C1178   1.412       .  A
C1177      C1182   1.412       .  A
C1178      C1179   1.409       .  A
C1178     Br1190   1.928       .  S
C1179      C1180   1.409       .  A
C1179     Br1194   1.932       .  S
C1180      C1183   1.486       .  S
C1180      C1181   1.407       .  A
C1181      C1182   1.409       .  A
C1181     Br1189   1.930       .  S
C1182     Br1193   1.923       .  S
C1183      C1184   1.407       .  A
C1183      C1188   1.411       .  A
C1184      C1185   1.401       .  A
C1184     Br1195   1.935       .  S
C1185      C1186   1.416       .  A
C1185     Br1191   1.937       .  S
C1186      C1187   1.412       .  A
C1187      C1188   1.414       .  A
C1187     Br1196   1.928       .  S
C1188     Br1192   1.926       .  S
C1197      C1198   1.411       .  A
C1197      C1202   1.412       .  A
C1198      C1199   1.410       .  A
C1198     Br1210   1.929       .  S
C1199      C1200   1.410       .  A
C1199     Br1214   1.929       .  S
C1200      C1203   1.489       .  S
C1200      C1201   1.410       .  A
C1201      C1202   1.409       .  A
C1201     Br1209   1.931       .  S
C1202     Br1213   1.930       .  S
C1203      C1204   1.410       .  A
C1203      C1208   1.407       .  A
C1204      C1205   1.414       .  A
C1204     Br1215   1.928       .  S
C1205      C1206   1.416       .  A
C1205     Br1211   1.930       .  S
C1206      C1207   1.422       .  A
C1207      C1208   1.405       .  A
C1207     Br1216   1.940       .  S
C1208     Br1212   1.936       .  S
C1217      C1218   1.407       .  A
C1217      C1222   1.408       .  A
C1218      C1219   1.409       .  A
C1218     Br1230   1.927       .  S
C1219      C1220   1.410       .  A
C1219     Br1234   1.927       .  S
C1220      C1223   1.480       .  S
C1220      C1221   1.410       .  A
C1221      C1222   1.401       .  A
C1221     Br1229   1.934       .  S
C1222     Br1233   1.933       .  S
C1223      C1224   1.410       .  A
C1223      C1228   1.411       .  A
C1224      C1225   1.406       .  A
C1224     Br1235   1.927       .  S
C1225      C1226   1.405       .  A
C1225     Br1231   1.928       .  S
C1226      C1227   1.407       .  A
C1227      C1228   1.404       .  A
C1227     Br1236   1.931       .  S
C1228     Br1232   1.931       .  S
C1237      C1238   1.407       .  A
C1237      C1242   1.408       .  A
C1238      C1239   1.412       .  A
C1238     Br1250   1.927       .  S
C1239      C1240   1.413       .  A
C1239     Br1254   1.926       .  S
C1240      C1243   1.487       .  S
C1240      C1241   1.410       .  A
C1241      C1242   1.402       .  A
C1241     Br1249   1.933       .  S
C1242     Br1253   1.929       .  S
C1243      C1244   1.409       .  A
C1243      C1248   1.409       .  A
C1244      C1245   1.411       .  A
C1244     Br1255   1.931       .  S
C1245      C1246   1.418       .  A
C1245     Br1251   1.931       .  S
C1246      C1247   1.413       .  A
C1247      C1248   1.406       .  A
C1247     Br1256   1.931       .  S
C1248     Br1252   1.932       .  S
C1257      C1258   1.413       .  A
C1257      C1262   1.413       .  A
C1258      C1259   1.406       .  A
C1258     Br1270   1.930       .  S
C1259      C1260   1.409       .  A
C1259     Br1274   1.932       .  S
C1260      C1263   1.495       .  S
C1260      C1261   1.413       .  A
C1261      C1262   1.415       .  A
C1261     Br1269   1.927       .  S
C1262     Br1273   1.928       .  S
C1263      C1264   1.408       .  A
C1263      C1268   1.412       .  A
C1264      C1265   1.406       .  A
C1264     Br1275   1.934       .  S
C1265      C1266   1.415       .  A
C1265     Br1271   1.926       .  S
C1266      C1267   1.416       .  A
C1267      C1268   1.417       .  A
C1267     Br1276   1.928       .  S
C1268     Br1272   1.928       .  S
C1277      C1278   1.410       .  A
C1277      C1282   1.409       .  A
C1278      C1279   1.399       .  A
C1278     Br1290   1.934       .  S
C1279      C1280   1.408       .  A
C1279     Br1294   1.932       .  S
C1280      C1283   1.481       .  S
C1280      C1281   1.411       .  A
C1281      C1282   1.411       .  A
C1281     Br1289   1.926       .  S
C1282     Br1293   1.928       .  S
C1283      C1284   1.407       .  A
C1283      C1288   1.408       .  A
C1284      C1285   1.406       .  A
C1284     Br1295   1.931       .  S
C1285      C1286   1.414       .  A
C1285     Br1291   1.932       .  S
C1286      C1287   1.413       .  A
C1287      C1288   1.407       .  A
C1287     Br1296   1.930       .  S
C1288     Br1292   1.930       .  S
C1297      C1298   1.423       .  A
C1297      C1302   1.426       .  A
C1298      C1299   1.410       .  A
C1298     Br1310   1.938       .  S
C1299      C1300   1.408       .  A
C1299     Br1314   1.936   1_565  S
C1300      C1303   1.493   1_565  S
C1300      C1301   1.407       .  A
C1301      C1302   1.413       .  A
C1301     Br1309   1.932       .  S
C1302     Br1313   1.933       .  S
C1303      C1304   1.412       .  A
C1303      C1308   1.411       .  A
C1304      C1305   1.410       .  A
C1304     Br1315   1.930       .  S
C1305      C1306   1.411       .  A
C1305     Br1311   1.929       .  S
C1306      C1307   1.409       .  A
C1307      C1308   1.408       .  A
C1307     Br1316   1.928       .  S
C1308     Br1312   1.930       .  S
C1317      C1318   1.408       .  A
C1317      C1322   1.411       .  A
C1318      C1319   1.402       .  A
C1318     Br1330   1.925       .  S
C1319      C1320   1.409       .  A
C1319     Br1334   1.933       .  S
C1320      C1323   1.486       .  S
C1320      C1321   1.411       .  A
C1321      C1322   1.412       .  A
C1321     Br1329   1.927       .  S
C1322     Br1333   1.928       .  S
C1323      C1324   1.409       .  A
C1323      C1328   1.408       .  A
C1324      C1325   1.411       .  A
C1324     Br1335   1.930       .  S
C1325      C1326   1.416       .  A
C1325     Br1331   1.928       .  S
C1326      C1327   1.416       .  A
C1327      C1328   1.405       .  A
C1327     Br1336   1.931       .  S
C1328     Br1332   1.934       .  S
C1337      C1338   1.416       .  A
C1337      C1342   1.419       .  A
C1338      C1339   1.413       .  A
C1338     Br1350   1.930       .  S
C1339      C1340   1.408       .  A
C1339     Br1354   1.928       .  S
C1340      C1343   1.486   1_565  S
C1340      C1341   1.405       .  A
C1341      C1342   1.405       .  A
C1341     Br1349   1.935   1_565  S
C1342     Br1353   1.930       .  S
C1343      C1344   1.409       .  A
C1343      C1348   1.409       .  A
C1344      C1345   1.410       .  A
C1344     Br1355   1.928       .  S
C1345      C1346   1.412       .  A
C1345     Br1351   1.930       .  S
C1346      C1347   1.412       .  A
C1347      C1348   1.406       .  A
C1347     Br1356   1.931       .  S
C1348     Br1352   1.931       .  S
C1357      C1358   1.417       .  A
C1357      C1362   1.424       .  A
C1358      C1359   1.412       .  A
C1358     Br1370   1.929       .  S
C1359      C1360   1.407       .  A
C1359     Br1374   1.928       .  S
C1360      C1363   1.487       .  S
C1360      C1361   1.407       .  A
C1361      C1362   1.406       .  A
C1361     Br1369   1.937       .  S
C1362     Br1373   1.940       .  S
C1363      C1364   1.409       .  A
C1363      C1368   1.408       .  A
C1364      C1365   1.410       .  A
C1364     Br1375   1.930       .  S
C1365      C1366   1.415       .  A
C1365     Br1371   1.932       .  S
C1366      C1367   1.412       .  A
C1367      C1368   1.406       .  A
C1367     Br1376   1.928       .  S
C1368     Br1372   1.930       .  S
C1377      C1378   1.414       .  A
C1377      C1382   1.413       .  A
C1378      C1379   1.403       .  A
C1378     Br1390   1.935       .  S
C1379      C1380   1.408       .  A
C1379     Br1394   1.935       .  S
C1380      C1383   1.486       .  S
C1380      C1381   1.410       .  A
C1381      C1382   1.413       .  A
C1381     Br1389   1.927       .  S
C1382     Br1393   1.929       .  S
C1383      C1384   1.406       .  A
C1383      C1388   1.407       .  A
C1384      C1385   1.408       .  A
C1384     Br1395   1.931       .  S
C1385      C1386   1.418       .  A
C1385     Br1391   1.930       .  S
C1386      C1387   1.417       .  A
C1387      C1388   1.410       .  A
C1387     Br1396   1.927       .  S
C1388     Br1392   1.931       .  S
C1397      C1398   1.415       .  A
C1397      C1402   1.418       .  A
C1398      C1399   1.412       .  A
C1398     Br1410   1.930       .  S
C1399      C1400   1.408       .  A
C1399     Br1414   1.926       .  S
C1400      C1403   1.483       .  S
C1400      C1401   1.407       .  A
C1401      C1402   1.402       .  A
C1401     Br1409   1.937       .  S
C1402     Br1413   1.936       .  S
C1403      C1404   1.410       .  A
C1403      C1408   1.409       .  A
C1404      C1405   1.410       .  A
C1404     Br1415   1.926       .  S
C1405      C1406   1.407       .  A
C1405     Br1411   1.927       .  S
C1406      C1407   1.409       .  A
C1407      C1408   1.405       .  A
C1407     Br1416   1.929       .  S
C1408     Br1412   1.932       .  S
C1417      C1418   1.416       .  A
C1417      C1422   1.417       .  A
C1418      C1419   1.415       .  A
C1418     Br1430   1.928       .  S
C1419      C1420   1.410       .  A
C1419     Br1434   1.927       .  S
C1420      C1423   1.492       .  S
C1420      C1421   1.408       .  A
C1421      C1422   1.408       .  A
C1421     Br1429   1.932       .  S
C1422     Br1433   1.933       .  S
C1423      C1424   1.410       .  A
C1423      C1428   1.412       .  A
C1424      C1425   1.406       .  A
C1424     Br1435   1.931       .  S
C1425      C1426   1.407       .  A
C1425     Br1431   1.923       .  S
C1426      C1427   1.410       .  A
C1427      C1428   1.414       .  A
C1427     Br1436   1.923       .  S
C1428     Br1432   1.926       .  S
C1437      C1438   1.416       .  A
C1437      C1442   1.418       .  A
C1438      C1439   1.407       .  A
C1438     Br1450   1.933       .  S
C1439      C1440   1.408       .  A
C1439     Br1454   1.932       .  S
C1440      C1443   1.485       .  S
C1440      C1441   1.406       .  A
C1441      C1442   1.408       .  A
C1441     Br1449   1.931       .  S
C1442     Br1453   1.931       .  S
C1443      C1444   1.409       .  A
C1443      C1448   1.409       .  A
C1444      C1445   1.405       .  A
C1444     Br1455   1.932       .  S
C1445      C1446   1.411       .  A
C1445     Br1451   1.932       .  S
C1446      C1447   1.412       .  A
C1447      C1448   1.409       .  A
C1447     Br1456   1.930       .  S
C1448     Br1452   1.930       .  S
C1457      C1458   1.419       .  A
C1457      C1462   1.420       .  A
C1458      C1459   1.404       .  A
C1458     Br1470   1.935       .  S
C1459      C1460   1.405       .  A
C1459     Br1474   1.933       .  S
C1460      C1463   1.482       .  S
C1460      C1461   1.406       .  A
C1461      C1462   1.411       .  A
C1461     Br1469   1.930       .  S
C1462     Br1473   1.930       .  S
C1463      C1464   1.409       .  A
C1463      C1468   1.407       .  A
C1464      C1465   1.411       .  A
C1464     Br1475   1.928       .  S
C1465      C1466   1.413       .  A
C1465     Br1471   1.927       .  S
C1466      C1467   1.411       .  A
C1467      C1468   1.401       .  A
C1467     Br1476   1.929       .  S
C1468     Br1472   1.931       .  S
C1477      C1478   1.414       .  A
C1477      C1482   1.414       .  A
C1478      C1479   1.411       .  A
C1478     Br1490   1.923       .  S
C1479      C1480   1.408       .  A
C1479     Br1494   1.930       .  S
C1480      C1483   1.489       .  S
C1480      C1481   1.406       .  A
C1481      C1482   1.408       .  A
C1481     Br1489   1.930       .  S
C1482     Br1493   1.921       .  S
C1483      C1484   1.408       .  A
C1483      C1488   1.406       .  A
C1484      C1485   1.416       .  A
C1484     Br1495   1.928       .  S
C1485      C1486   1.419       .  A
C1485     Br1491   1.929       .  S
C1486      C1487   1.425       .  A
C1487      C1488   1.403       .  A
C1487     Br1496   1.942       .  S
C1488     Br1492   1.939       .  S
C1497      C1498   1.417       .  A
C1497      C1502   1.414       .  A
C1498      C1499   1.410       .  A
C1498     Br1510   1.928       .  S
C1499      C1500   1.407       .  A
C1499     Br1514   1.930       .  S
C1500      C1503   1.485       .  S
C1500      C1501   1.407       .  A
C1501      C1502   1.406       .  A
C1501     Br1509   1.933       .  S
C1502     Br1513   1.925       .  S
C1503      C1504   1.407       .  A
C1503      C1508   1.406       .  A
C1504      C1505   1.413       .  A
C1504     Br1515   1.930       .  S
C1505      C1506   1.421       .  A
C1505     Br1511   1.930       .  S
C1506      C1507   1.424       .  A
C1507      C1508   1.403       .  A
C1507     Br1516   1.941       .  S
C1508     Br1512   1.938       .  S
C1517      C1518   1.417       .  A
C1517      C1522   1.415       .  A
C1518      C1519   1.412       .  A
C1518     Br1530   1.930       .  S
C1519      C1520   1.409       .  A
C1519     Br1534   1.930       .  S
C1520      C1523   1.489       .  S
C1520      C1521   1.409       .  A
C1521      C1522   1.408       .  A
C1521     Br1529   1.933       .  S
C1522     Br1533   1.932       .  S
C1523      C1524   1.411       .  A
C1523      C1528   1.410       .  A
C1524      C1525   1.411       .  A
C1524     Br1535   1.929       .  S
C1525      C1526   1.412       .  A
C1525     Br1531   1.931       .  S
C1526      C1527   1.409       .  A
C1527      C1528   1.406       .  A
C1527     Br1536   1.930       .  S
C1528     Br1532   1.930       .  S
C1537      C1538   1.412       .  A
C1537      C1542   1.409       .  A
C1538      C1539   1.413       .  A
C1538     Br1550   1.930       .  S
C1539      C1540   1.410       .  A
C1539     Br1554   1.926       .  S
C1540      C1543   1.488       .  S
C1540      C1541   1.409       .  A
C1541      C1542   1.404       .  A
C1541     Br1549   1.929       .  S
C1542     Br1553   1.927       .  S
C1543      C1544   1.412       .  A
C1543      C1548   1.409       .  A
C1544      C1545   1.413       .  A
C1544     Br1555   1.926       .  S
C1545      C1546   1.410       .  A
C1545     Br1551   1.927       .  S
C1546      C1547   1.410       .  A
C1547      C1548   1.405       .  A
C1547     Br1556   1.932       .  S
C1548     Br1552   1.931       .  S
C1557      C1558   1.416       .  A
C1557      C1562   1.418       .  A
C1558      C1559   1.407       .  A
C1558     Br1570   1.930       .  S
C1559      C1560   1.406       .  A
C1559     Br1574   1.929       .  S
C1560      C1563   1.480       .  S
C1560      C1561   1.407       .  A
C1561      C1562   1.405       .  A
C1561     Br1569   1.933       .  S
C1562     Br1573   1.934       .  S
C1563      C1564   1.409       .  A
C1563      C1568   1.408       .  A
C1564      C1565   1.411       .  A
C1564     Br1575   1.927       .  S
C1565      C1566   1.412       .  A
C1565     Br1571   1.928       .  S
C1566      C1567   1.411       .  A
C1567      C1568   1.399       .  A
C1567     Br1576   1.932       .  S
C1568     Br1572   1.934       .  S
C1577      C1578   1.408       .  A
C1577      C1582   1.408       .  A
C1578      C1579   1.403       .  A
C1578     Br1590   1.929       .  S
C1579      C1580   1.409       .  A
C1579     Br1594   1.932       .  S
C1580      C1583   1.487       .  S
C1580      C1581   1.412       .  A
C1581      C1582   1.412       .  A
C1581     Br1589   1.925       .  S
C1582     Br1593   1.928       .  S
C1583      C1584   1.407       .  A
C1583      C1588   1.406       .  A
C1584      C1585   1.408       .  A
C1584     Br1595   1.933       .  S
C1585      C1586   1.418       .  A
C1585     Br1591   1.932       .  S
C1586      C1587   1.419       .  A
C1587      C1588   1.412       .  A
C1587     Br1596   1.929       .  S
C1588     Br1592   1.929       .  S
C1597      C1598   1.418       .  A
C1597      C1602   1.418       .  A
C1598      C1599   1.407       .  A
C1598     Br1610   1.933       .  S
C1599      C1600   1.407       .  A
C1599     Br1614   1.932       .  S
C1600      C1603   1.489       .  S
C1600      C1601   1.409       .  A
C1601      C1602   1.412       .  A
C1601     Br1609   1.930       .  S
C1602     Br1613   1.931       .  S
C1603      C1604   1.410       .  A
C1603      C1608   1.412       .  A
C1604      C1605   1.403       .  A
C1604     Br1615   1.930       .  S
C1605      C1606   1.408       .  A
C1605     Br1611   1.928       .  S
C1606      C1607   1.410       .  A
C1607      C1608   1.413       .  A
C1607     Br1616   1.926       .  S
C1608     Br1612   1.927       .  S
C1617      C1618   1.417       .  A
C1617      C1622   1.418       .  A
C1618      C1619   1.413       .  A
C1618     Br1630   1.932       .  S
C1619      C1620   1.409       .  A
C1619     Br1634   1.929       .  S
C1620      C1623   1.492       .  S
C1620      C1621   1.408       .  A
C1621      C1622   1.409       .  A
C1621     Br1629   1.932       .  S
C1622     Br1633   1.930       .  S
C1623      C1624   1.411       .  A
C1623      C1628   1.409       .  A
C1624      C1625   1.414       .  A
C1624     Br1635   1.928       .  S
C1625      C1626   1.413       .  A
C1625     Br1631   1.929       .  S
C1626      C1627   1.412       .  A
C1627      C1628   1.408       .  A
C1627     Br1636   1.931       .  S
C1628     Br1632   1.930       .  S
C1637      C1638   1.409       .  A
C1637      C1642   1.411       .  A
C1638      C1639   1.411       .  A
C1638     Br1650   1.928       .  S
C1639      C1640   1.411       .  A
C1639     Br1654   1.927       .  S
C1640      C1643   1.485       .  S
C1640      C1641   1.408       .  A
C1641      C1642   1.404       .  A
C1641     Br1649   1.932       .  S
C1642     Br1653   1.933       .  S
C1643      C1644   1.406       .  A
C1643      C1648   1.406       .  A
C1644      C1645   1.407       .  A
C1644     Br1655   1.933       .  S
C1645      C1646   1.419       .  A
C1645     Br1651   1.929       .  S
C1646      C1647   1.421       .  A
C1647      C1648   1.410       .  A
C1647     Br1656   1.932       .  S
C1648     Br1652   1.930       .  S
C1657      C1658   1.420       .  A
C1657      C1662   1.419       .  A
C1658      C1659   1.408       .  A
C1658     Br1670   1.933       .  S
C1659      C1660   1.406       .  A
C1659     Br1674   1.933       .  S
C1660      C1663   1.489       .  S
C1660      C1661   1.407       .  A
C1661      C1662   1.412       .  A
C1661     Br1669   1.930       .  S
C1662     Br1673   1.930       .  S
C1663      C1664   1.410       .  A
C1663      C1668   1.410       .  A
C1664      C1665   1.407       .  A
C1664     Br1675   1.930       .  S
C1665      C1666   1.411       .  A
C1665     Br1671   1.931       .  S
C1666      C1667   1.410       .  A
C1667      C1668   1.410       .  A
C1667     Br1676   1.928       .  S
C1668     Br1672   1.928       .  S
C1677      C1678   1.417       .  A
C1677      C1682   1.421       .  A
C1678      C1679   1.405       .  A
C1678     Br1690   1.930       .  S
C1679      C1680   1.407       .  A
C1679     Br1694   1.934       .  S
C1680      C1683   1.488       .  S
C1680      C1681   1.408       .  A
C1681      C1682   1.414       .  A
C1681     Br1689   1.929       .  S
C1682     Br1693   1.930       .  S
C1683      C1684   1.411       .  A
C1683      C1688   1.410       .  A
C1684      C1685   1.411       .  A
C1684     Br1695   1.928       .  S
C1685      C1686   1.411       .  A
C1685     Br1691   1.927       .  S
C1686      C1687   1.410       .  A
C1687      C1688   1.406       .  A
C1687     Br1696   1.929       .  S
C1688     Br1692   1.931       .  S
C1697      C1698   1.410       .  A
C1697      C1702   1.412       .  A
C1698      C1699   1.405       .  A
C1698     Br1710   1.923       .  S
C1699      C1700   1.407       .  A
C1699     Br1714   1.931       .  S
C1700      C1703   1.480       .  S
C1700      C1701   1.409       .  A
C1701      C1702   1.406       .  A
C1701     Br1709   1.932       .  S
C1702     Br1713   1.931       .  S
C1703      C1704   1.406       .  A
C1703      C1708   1.406       .  A
C1704      C1705   1.399       .  A
C1704     Br1715   1.937       .  S
C1705      C1706   1.421       .  A
C1705     Br1711   1.939       .  S
C1706      C1707   1.423       .  A
C1707      C1708   1.411       .  A
C1707     Br1716   1.932       .  S
C1708     Br1712   1.931       .  S
C1717      C1718   1.411       .  A
C1717      C1722   1.408       .  A
C1718      C1719   1.405       .  A
C1718     Br1730   1.932       .  S
C1719      C1720   1.411       .  A
C1719     Br1734   1.933       .  S
C1720      C1723   1.488       .  S
C1720      C1721   1.411       .  A
C1721      C1722   1.411       .  A
C1721     Br1729   1.926       .  S
C1722     Br1733   1.927       .  S
C1723      C1724   1.407       .  A
C1723      C1728   1.411       .  A
C1724      C1725   1.402       .  A
C1724     Br1735   1.935       .  S
C1725      C1726   1.417       .  A
C1725     Br1731   1.937       .  S
C1726      C1727   1.412       .  A
C1727      C1728   1.414       .  A
C1727     Br1736   1.928       .  S
C1728     Br1732   1.927       .  S
C1737      C1738   1.422       .  A
C1737      C1742   1.424       .  A
C1738      C1739   1.417       .  A
C1738     Br1750   1.928       .  S
C1739      C1740   1.407       .  A
C1739     Br1754   1.928       .  S
C1740      C1743   1.490       .  S
C1740      C1741   1.407       .  A
C1741      C1742   1.405       .  A
C1741     Br1749   1.939       .  S
C1742     Br1753   1.939       .  S
C1743      C1744   1.411       .  A
C1743      C1748   1.407       .  A
C1744      C1745   1.412       .  A
C1744     Br1755   1.925       .  S
C1745      C1746   1.409       .  A
C1745     Br1751   1.928       .  S
C1746      C1747   1.413       .  A
C1747      C1748   1.405       .  A
C1747     Br1756   1.927       .  S
C1748     Br1752   1.931       .  S
C1757      C1758   1.414       .  A
C1757      C1762   1.415       .  A
C1758      C1759   1.415       .  A
C1758     Br1770   1.927       .  S
C1759      C1760   1.412       .  A
C1759     Br1774   1.929       .  S
C1760      C1763   1.494   1_455  S
C1760      C1761   1.408       .  A
C1761      C1762   1.407       .  A
C1761     Br1769   1.933   1_455  S
C1762     Br1773   1.927       .  S
C1763      C1764   1.411       .  A
C1763      C1768   1.410       .  A
C1764      C1765   1.412       .  A
C1764     Br1775   1.929       .  S
C1765      C1766   1.413       .  A
C1765     Br1771   1.931       .  S
C1766      C1767   1.414       .  A
C1767      C1768   1.410       .  A
C1767     Br1776   1.931       .  S
C1768     Br1772   1.931       .  S
C1777      C1778   1.417       .  A
C1777      C1782   1.424       .  A
C1778      C1779   1.410       .  A
C1778     Br1790   1.931       .  S
C1779      C1780   1.406       .  A
C1779     Br1794   1.929       .  S
C1780      C1783   1.477       .  S
C1780      C1781   1.404       .  A
C1781      C1782   1.401       .  A
C1781     Br1789   1.938       .  S
C1782     Br1793   1.940       .  S
C1783      C1784   1.410       .  A
C1783      C1788   1.408       .  A
C1784      C1785   1.404       .  A
C1784     Br1795   1.932       .  S
C1785      C1786   1.408       .  A
C1785     Br1791   1.931       .  S
C1786      C1787   1.408       .  A
C1787      C1788   1.405       .  A
C1787     Br1796   1.928       .  S
C1788     Br1792   1.928       .  S
C1797      C1798   1.417       .  A
C1797      C1802   1.417       .  A
C1798      C1799   1.415       .  A
C1798     Br1810   1.925       .  S
C1799      C1800   1.410       .  A
C1799     Br1814   1.930       .  S
C1800      C1803   1.495       .  S
C1800      C1801   1.409       .  A
C1801      C1802   1.407       .  A
C1801     Br1809   1.928       .  S
C1802     Br1813   1.936       .  S
C1803      C1804   1.412       .  A
C1803      C1808   1.413       .  A
C1804      C1805   1.406       .  A
C1804     Br1815   1.929       .  S
C1805      C1806   1.406       .  A
C1805     Br1811   1.926       .  S
C1806      C1807   1.409       .  A
C1807      C1808   1.413       .  A
C1807     Br1816   1.926       .  S
C1808     Br1812   1.926       .  S
C1817      C1818   1.419       .  A
C1817      C1822   1.420       .  A
C1818      C1819   1.408       .  A
C1818     Br1830   1.935       .  S
C1819      C1820   1.408       .  A
C1819     Br1834   1.932       .  S
C1820      C1823   1.491       .  S
C1820      C1821   1.409       .  A
C1821      C1822   1.412       .  A
C1821     Br1829   1.932       .  S
C1822     Br1833   1.931       .  S
C1823      C1824   1.413       .  A
C1823      C1828   1.409       .  A
C1824      C1825   1.415       .  A
C1824     Br1835   1.927       .  S
C1825      C1826   1.414       .  A
C1825     Br1831   1.928       .  S
C1826      C1827   1.410       .  A
C1827      C1828   1.400       .  A
C1827     Br1836   1.929       .  S
C1828     Br1832   1.934       .  S
C1837      C1838   1.418       .  A
C1837      C1842   1.419       .  A
C1838      C1839   1.414       .  A
C1838     Br1850   1.931       .  S
C1839      C1840   1.410       .  A
C1839     Br1854   1.930       .  S
C1840      C1843   1.498   1_655  S
C1840      C1841   1.410       .  A
C1841      C1842   1.411       .  A
C1841     Br1849   1.933       .  S
C1842     Br1853   1.933       .  S
C1843      C1844   1.407       .  A
C1843      C1848   1.410       .  A
C1844      C1845   1.411       .  A
C1844     Br1855   1.933       .  S
C1845      C1846   1.418       .  A
C1845     Br1851   1.921       .  S
C1846      C1847   1.421       .  A
C1847      C1848   1.416       .  A
C1847     Br1856   1.925       .  S
C1848     Br1852   1.931       .  S
C1857      C1858   1.417       .  A
C1857      C1862   1.416       .  A
C1858      C1859   1.412       .  A
C1858     Br1870   1.929       .  S
C1859      C1860   1.407       .  A
C1859     Br1874   1.927       .  S
C1860      C1863   1.481       .  S
C1860      C1861   1.404       .  A
C1861      C1862   1.402       .  A
C1861     Br1869   1.935       .  S
C1862     Br1873   1.923       .  S
C1863      C1864   1.407       .  A
C1863      C1868   1.408       .  A
C1864      C1865   1.402       .  A
C1864     Br1875   1.935       .  S
C1865      C1866   1.412       .  A
C1865     Br1871   1.927       .  S
C1866      C1867   1.414       .  A
C1867      C1868   1.412       .  A
C1867     Br1876   1.928       .  S
C1868     Br1872   1.927       .  S
C1877      C1878   1.418       .  A
C1877      C1882   1.419       .  A
C1878      C1879   1.405       .  A
C1878     Br1890   1.934       .  S
C1879      C1880   1.405       .  A
C1879     Br1894   1.932       .  S
C1880      C1883   1.476       .  S
C1880      C1881   1.405       .  A
C1881      C1882   1.406       .  A
C1881     Br1889   1.932       .  S
C1882     Br1893   1.931       .  S
C1883      C1884   1.406       .  A
C1883      C1888   1.408       .  A
C1884      C1885   1.399       .  A
C1884     Br1895   1.935       .  S
C1885      C1886   1.414       .  A
C1885     Br1891   1.937       .  S
C1886      C1887   1.411       .  A
C1887      C1888   1.409       .  A
C1887     Br1896   1.928       .  S
C1888     Br1892   1.927       .  S
C1897      C1898   1.411       .  A
C1897      C1902   1.410       .  A
C1898      C1899   1.413       .  A
C1898     Br1910   1.926       .  S
C1899      C1900   1.411       .  A
C1899     Br1914   1.927       .  S
C1900      C1903   1.492       .  S
C1900      C1901   1.410       .  A
C1901      C1902   1.407       .  A
C1901     Br1909   1.931       .  S
C1902     Br1913   1.929       .  S
C1903      C1904   1.411       .  A
C1903      C1908   1.408       .  A
C1904      C1905   1.416       .  A
C1904     Br1915   1.926       .  S
C1905      C1906   1.412       .  A
C1905     Br1911   1.920       .  S
C1906      C1907   1.411       .  A
C1907      C1908   1.405       .  A
C1907     Br1916   1.922       .  S
C1908     Br1912   1.933       .  S
C1917      C1918   1.426       .  A
C1917      C1922   1.416       .  A
C1918      C1919   1.404       .  A
C1918     Br1930   1.942       .  S
C1919      C1920   1.405       .  A
C1919     Br1934   1.939       .  S
C1920      C1923   1.484       .  S
C1920      C1921   1.407       .  A
C1921      C1922   1.412       .  A
C1921     Br1929   1.927       .  S
C1922     Br1933   1.930       .  S
C1923      C1924   1.410       .  A
C1923      C1928   1.409       .  A
C1924      C1925   1.407       .  A
C1924     Br1935   1.929       .  S
C1925      C1926   1.409       .  A
C1925     Br1931   1.930       .  S
C1926      C1927   1.409       .  A
C1927      C1928   1.407       .  A
C1927     Br1936   1.927       .  S
C1928     Br1932   1.929       .  S
C1937      C1938   1.429       .  A
C1937      C1942   1.425       .  A
C1938      C1939   1.407       .  A
C1938     Br1950   1.941       .  S
C1939      C1940   1.404       .  A
C1939     Br1954   1.937       .  S
C1940      C1943   1.490       .  S
C1940      C1941   1.406       .  A
C1941      C1942   1.413       .  A
C1941     Br1949   1.930       .  S
C1942     Br1953   1.933       .  S
C1943      C1944   1.410       .  A
C1943      C1948   1.408       .  A
C1944      C1945   1.412       .  A
C1944     Br1955   1.930       .  S
C1945      C1946   1.414       .  A
C1945     Br1951   1.926       .  S
C1946      C1947   1.413       .  A
C1947      C1948   1.406       .  A
C1947     Br1956   1.928       .  S
C1948     Br1952   1.932       .  S
C1957      C1958   1.418       .  A
C1957      C1962   1.418       .  A
C1958      C1959   1.413       .  A
C1958     Br1970   1.930       .  S
C1959      C1960   1.409       .  A
C1959     Br1974   1.930       .  S
C1960      C1963   1.486       .  S
C1960      C1961   1.406       .  A
C1961      C1962   1.404       .  A
C1961     Br1969   1.934       .  S
C1962     Br1973   1.936       .  S
C1963      C1964   1.410       .  A
C1963      C1968   1.411       .  A
C1964      C1965   1.406       .  A
C1964     Br1975   1.930       .  S
C1965      C1966   1.408       .  A
C1965     Br1971   1.930       .  S
C1966      C1967   1.408       .  A
C1967      C1968   1.409       .  A
C1967     Br1976   1.927       .  S
C1968     Br1972   1.929       .  S
C1977      C1978   1.419       .  A
C1977      C1982   1.422       .  A
C1978      C1979   1.413       .  A
C1978     Br1990   1.930       .  S
C1979      C1980   1.408       .  A
C1979     Br1994   1.930       .  S
C1980      C1983   1.492       .  S
C1980      C1981   1.406       .  A
C1981      C1982   1.409       .  A
C1981     Br1989   1.933       .  S
C1982     Br1993   1.936       .  S
C1983      C1984   1.411       .  A
C1983      C1988   1.409       .  A
C1984      C1985   1.412       .  A
C1984     Br1995   1.929       .  S
C1985      C1986   1.413       .  A
C1985     Br1991   1.929       .  S
C1986      C1987   1.412       .  A
C1987      C1988   1.409       .  A
C1987     Br1996   1.928       .  S
C1988     Br1992   1.930       .  S
C1997      C1998   1.412       .  A
C1997      C2002   1.414       .  A
C1998      C1999   1.411       .  A
C1998     Br2010   1.930       .  S
C1999      C2000   1.409       .  A
C1999     Br2014   1.926       .  S
C2000      C2003   1.483       .  S
C2000      C2001   1.408       .  A
C2001      C2002   1.404       .  A
C2001     Br2009   1.935       .  S
C2002     Br2013   1.932       .  S
C2003      C2004   1.410       .  A
C2003      C2008   1.409       .  A
C2004      C2005   1.408       .  A
C2004     Br2015   1.928       .  S
C2005      C2006   1.409       .  A
C2005     Br2011   1.929       .  S
C2006      C2007   1.409       .  A
C2007      C2008   1.406       .  A
C2007     Br2016   1.930       .  S
C2008     Br2012   1.930       .  S
C2017      C2018   1.422       .  A
C2017      C2022   1.420       .  A
C2018      C2019   1.405       .  A
C2018     Br2030   1.937       .  S
C2019      C2020   1.405       .  A
C2019     Br2034   1.935   1_545  S
C2020      C2023   1.481   1_545  S
C2020      C2021   1.406       .  A
C2021      C2022   1.409       .  A
C2021     Br2029   1.931       .  S
C2022     Br2033   1.933       .  S
C2023      C2024   1.411       .  A
C2023      C2028   1.407       .  A
C2024      C2025   1.409       .  A
C2024     Br2035   1.929       .  S
C2025      C2026   1.409       .  A
C2025     Br2031   1.929       .  S
C2026      C2027   1.406       .  A
C2027      C2028   1.402       .  A
C2027     Br2036   1.919       .  S
C2028     Br2032   1.931       .  S
C2037      C2038   1.410       .  A
C2037      C2042   1.410       .  A
C2038      C2039   1.406       .  A
C2038     Br2050   1.929       .  S
C2039      C2040   1.409       .  A
C2039     Br2054   1.930       .  S
C2040      C2043   1.486       .  S
C2040      C2041   1.410       .  A
C2041      C2042   1.409       .  A
C2041     Br2049   1.926       .  S
C2042     Br2053   1.929       .  S
C2043      C2044   1.409       .  A
C2043      C2048   1.410       .  A
C2044      C2045   1.404       .  A
C2044     Br2055   1.935       .  S
C2045      C2046   1.414       .  A
C2045     Br2051   1.935       .  S
C2046      C2047   1.410       .  A
C2047      C2048   1.413       .  A
C2047     Br2056   1.926       .  S
C2048     Br2052   1.926       .  S
C2057      C2058   1.416       .  A
C2057      C2062   1.418       .  A
C2058      C2059   1.415       .  A
C2058     Br2070   1.927       .  S
C2059      C2060   1.409       .  A
C2059     Br2074   1.927       .  S
C2060      C2063   1.486       .  S
C2060      C2061   1.408       .  A
C2061      C2062   1.402       .  A
C2061     Br2069   1.937       .  S
C2062     Br2073   1.939       .  S
C2063      C2064   1.408       .  A
C2063      C2068   1.409       .  A
C2064      C2065   1.405       .  A
C2064     Br2075   1.931       .  S
C2065      C2066   1.410       .  A
C2065     Br2071   1.924       .  S
C2066      C2067   1.412       .  A
C2067      C2068   1.411       .  A
C2067     Br2076   1.928       .  S
C2068     Br2072   1.927       .  S
C2077      C2078   1.416       .  A
C2077      C2082   1.414       .  A
C2078      C2079   1.406       .  A
C2078     Br2090   1.932       .  S
C2079      C2080   1.407       .  A
C2079     Br2094   1.932   1_655  S
C2080      C2083   1.488   1_655  S
C2080      C2081   1.410       .  A
C2081      C2082   1.413       .  A
C2081     Br2089   1.928       .  S
C2082     Br2093   1.929       .  S
C2083      C2084   1.408       .  A
C2083      C2088   1.409       .  A
C2084      C2085   1.407       .  A
C2084     Br2095   1.931       .  S
C2085      C2086   1.414       .  A
C2085     Br2091   1.932       .  S
C2086      C2087   1.417       .  A
C2087      C2088   1.412       .  A
C2087     Br2096   1.931       .  S
C2088     Br2092   1.929       .  S
C2097      C2098   1.410       .  A
C2097      C2102   1.410       .  A
C2098      C2099   1.410       .  A
C2098     Br2110   1.930       .  S
C2099      C2100   1.411       .  A
C2099     Br2114   1.929       .  S
C2100      C2103   1.489   1_565  S
C2100      C2101   1.409       .  A
C2101      C2102   1.407       .  A
C2101     Br2109   1.931       .  S
C2102     Br2113   1.925       .  S
C2103      C2104   1.407       .  A
C2103      C2108   1.407       .  A
C2104      C2105   1.412       .  A
C2104     Br2115   1.930       .  S
C2105      C2106   1.421       .  A
C2105     Br2111   1.932       .  S
C2106      C2107   1.422       .  A
C2107      C2108   1.407       .  A
C2107     Br2116   1.935       .  S
C2108     Br2112   1.935   1_545  S
C2117      C2118   1.410       .  A
C2117      C2122   1.410       .  A
C2118      C2119   1.408       .  A
C2118     Br2130   1.926       .  S
C2119      C2120   1.410       .  A
C2119     Br2134   1.931       .  S
C2120      C2123   1.490       .  S
C2120      C2121   1.410       .  A
C2121      C2122   1.411       .  A
C2121     Br2129   1.928       .  S
C2122     Br2133   1.928       .  S
C2123      C2124   1.408       .  A
C2123      C2128   1.407       .  A
C2124      C2125   1.407       .  A
C2124     Br2135   1.934       .  S
C2125      C2126   1.421       .  A
C2125     Br2131   1.937       .  S
C2126      C2127   1.419       .  A
C2127      C2128   1.412       .  A
C2127     Br2136   1.931       .  S
C2128     Br2132   1.929       .  S
C2137      C2138   1.409       .  A
C2137      C2142   1.409       .  A
C2138      C2139   1.409       .  A
C2138     Br2150   1.928       .  S
C2139      C2140   1.410       .  A
C2139     Br2154   1.928       .  S
C2140      C2143   1.486       .  S
C2140      C2141   1.410       .  A
C2141      C2142   1.407       .  A
C2141     Br2149   1.930       .  S
C2142     Br2153   1.929       .  S
C2143      C2144   1.406       .  A
C2143      C2148   1.405       .  A
C2144      C2145   1.413       .  A
C2144     Br2155   1.928       .  S
C2145      C2146   1.421       .  A
C2145     Br2151   1.932       .  S
C2146      C2147   1.425       .  A
C2147      C2148   1.405       .  A
C2147     Br2156   1.940       .  S
C2148     Br2152   1.937       .  S
C2157      C2158   1.413       .  A
C2157      C2162   1.412       .  A
C2158      C2159   1.406       .  A
C2158     Br2170   1.930       .  S
C2159      C2160   1.407       .  A
C2159     Br2174   1.930       .  S
C2160      C2163   1.479       .  S
C2160      C2161   1.408       .  A
C2161      C2162   1.405       .  A
C2161     Br2169   1.931       .  S
C2162     Br2173   1.932       .  S
C2163      C2164   1.404       .  A
C2163      C2168   1.405       .  A
C2164      C2165   1.404       .  A
C2164     Br2175   1.933       .  S
C2165      C2166   1.418       .  A
C2165     Br2171   1.929       .  S
C2166      C2167   1.418       .  A
C2167      C2168   1.409       .  A
C2167     Br2176   1.925       .  S
C2168     Br2172   1.932       .  S
C2177      C2178   1.429       .  A
C2177      C2182   1.427       .  A
C2178      C2179   1.402       .  A
C2178     Br2190   1.941       .  S
C2179      C2180   1.402       .  A
C2179     Br2194   1.938       .  S
C2180      C2183   1.483       .  S
C2180      C2181   1.405       .  A
C2181      C2182   1.414       .  A
C2181     Br2189   1.931       .  S
C2182     Br2193   1.934       .  S
C2183      C2184   1.407       .  A
C2183      C2188   1.408       .  A
C2184      C2185   1.408       .  A
C2184     Br2195   1.931       .  S
C2185      C2186   1.413       .  A
C2185     Br2191   1.923       .  S
C2186      C2187   1.412       .  A
C2187      C2188   1.407       .  A
C2187     Br2196   1.927       .  S
C2188     Br2192   1.930       .  S
C2197      C2198   1.411       .  A
C2197      C2202   1.412       .  A
C2198      C2199   1.405       .  A
C2198     Br2210   1.931       .  S
C2199      C2200   1.411       .  A
C2199     Br2214   1.932       .  S
C2200      C2203   1.490       .  S
C2200      C2201   1.411       .  A
C2201      C2202   1.413       .  A
C2201     Br2209   1.928       .  S
C2202     Br2213   1.928       .  S
C2203      C2204   1.412       .  A
C2203      C2208   1.412       .  A
C2204      C2205   1.407       .  A
C2204     Br2215   1.931       .  S
C2205      C2206   1.408       .  A
C2205     Br2211   1.930       .  S
C2206      C2207   1.407       .  A
C2207      C2208   1.409       .  A
C2207     Br2216   1.927       .  S
C2208     Br2212   1.927       .  S
C2217      C2218   1.409       .  A
C2217      C2222   1.409       .  A
C2218      C2219   1.407       .  A
C2218     Br2230   1.929       .  S
C2219      C2220   1.407       .  A
C2219     Br2234   1.927       .  S
C2220      C2223   1.473       .  S
C2220      C2221   1.408       .  A
C2221      C2222   1.399       .  A
C2221     Br2229   1.935       .  S
C2222     Br2233   1.933       .  S
C2223      C2224   1.406       .  A
C2223      C2228   1.405       .  A
C2224      C2225   1.406       .  A
C2224     Br2235   1.929       .  S
C2225      C2226   1.413       .  A
C2225     Br2231   1.930       .  S
C2226      C2227   1.413       .  A
C2227      C2228   1.401       .  A
C2227     Br2236   1.929       .  S
C2228     Br2232   1.932       .  S
C2237      C2238   1.419       .  A
C2237      C2242   1.421       .  A
C2238      C2239   1.406       .  A
C2238     Br2250   1.935       .  S
C2239      C2240   1.406       .  A
C2239     Br2254   1.933       .  S
C2240      C2243   1.483   1_455  S
C2240      C2241   1.406       .  A
C2241      C2242   1.410       .  A
C2241     Br2249   1.930       .  S
C2242     Br2253   1.933       .  S
C2243      C2244   1.407       .  A
C2243      C2248   1.406       .  A
C2244      C2245   1.406       .  A
C2244     Br2255   1.932       .  S
C2245      C2246   1.417       .  A
C2245     Br2251   1.934       .  S
C2246      C2247   1.419       .  A
C2247      C2248   1.409       .  A
C2247     Br2256   1.933       .  S
C2248     Br2252   1.930       .  S
C2257      C2258   1.423       .  A
C2257      C2262   1.425       .  A
C2258      C2259   1.408       .  A
C2258     Br2270   1.931       .  S
C2259      C2260   1.402       .  A
C2259     Br2274   1.931       .  S
C2260      C2263   1.476       .  S
C2260      C2261   1.404       .  A
C2261      C2262   1.403       .  A
C2261     Br2269   1.938       .  S
C2262     Br2273   1.941       .  S
C2263      C2264   1.407       .  A
C2263      C2268   1.409       .  A
C2264      C2265   1.403       .  A
C2264     Br2275   1.929       .  S
C2265      C2266   1.407       .  A
C2265     Br2271   1.925       .  S
C2266      C2267   1.408       .  A
C2267      C2268   1.404       .  A
C2267     Br2276   1.930       .  S
C2268     Br2272   1.931       .  S
C2277      C2278   1.420       .  A
C2277      C2282   1.416       .  A
C2278      C2279   1.408       .  A
C2278     Br2290   1.932       .  S
C2279      C2280   1.406       .  A
C2279     Br2294   1.930       .  S
C2280      C2283   1.480       .  S
C2280      C2281   1.406       .  A
C2281      C2282   1.403       .  A
C2281     Br2289   1.930       .  S
C2282     Br2293   1.933       .  S
C2283      C2284   1.408       .  A
C2283      C2288   1.409       .  A
C2284      C2285   1.410       .  A
C2284     Br2295   1.927       .  S
C2285      C2286   1.413       .  A
C2285     Br2291   1.929       .  S
C2286      C2287   1.410       .  A
C2287      C2288   1.400       .  A
C2287     Br2296   1.928       .  S
C2288     Br2292   1.936       .  S
C2297      C2298   1.417       .  A
C2297      C2302   1.415       .  A
C2298      C2299   1.405       .  A
C2298     Br2310   1.930       .  S
C2299      C2300   1.406       .  A
C2299     Br2314   1.933       .  S
C2300      C2303   1.480       .  S
C2300      C2301   1.406       .  A
C2301      C2302   1.407       .  A
C2301     Br2309   1.929       .  S
C2302     Br2313   1.928       .  S
C2303      C2304   1.406       .  A
C2303      C2308   1.405       .  A
C2304      C2305   1.401       .  A
C2304     Br2315   1.940       .  S
C2305      C2306   1.423       .  A
C2305     Br2311   1.939       .  S
C2306      C2307   1.422       .  A
C2307      C2308   1.411       .  A
C2307     Br2316   1.932       .  S
C2308     Br2312   1.929       .  S
C2317      C2318   1.416       .  A
C2317      C2322   1.419       .  A
C2318      C2319   1.402       .  A
C2318     Br2330   1.929       .  S
C2319      C2320   1.406       .  A
C2319     Br2334   1.937       .  S
C2320      C2323   1.486       .  S
C2320      C2321   1.410       .  A
C2321      C2322   1.415       .  A
C2321     Br2329   1.929       .  S
C2322     Br2333   1.930       .  S
C2323      C2324   1.410       .  A
C2323      C2328   1.406       .  A
C2324      C2325   1.413       .  A
C2324     Br2335   1.928       .  S
C2325      C2326   1.415       .  A
C2325     Br2331   1.925       .  S
C2326      C2327   1.418       .  A
C2327      C2328   1.404       .  A
C2327     Br2336   1.930       .  S
C2328     Br2332   1.933       .  S
C2337      C2338   1.412       .  A
C2337      C2342   1.414       .  A
C2338      C2339   1.412       .  A
C2338     Br2350   1.930       .  S
C2339      C2340   1.412       .  A
C2339     Br2354   1.928       .  S
C2340      C2343   1.498       .  S
C2340      C2341   1.411       .  A
C2341      C2342   1.412       .  A
C2341     Br2349   1.930       .  S
C2342     Br2353   1.932       .  S
C2343      C2344   1.409       .  A
C2343      C2348   1.407       .  A
C2344      C2345   1.417       .  A
C2344     Br2355   1.930       .  S
C2345      C2346   1.422       .  A
C2345     Br2351   1.932       .  S
C2346      C2347   1.423       .  A
C2347      C2348   1.411       .  A
C2347     Br2356   1.930       .  S
C2348     Br2352   1.934       .  S
C2357      C2358   1.411       .  A
C2357      C2362   1.412       .  A
C2358      C2359   1.407       .  A
C2358     Br2370   1.926       .  S
C2359      C2360   1.407       .  A
C2359     Br2374   1.928       .  S
C2360      C2363   1.477       .  S
C2360      C2361   1.408       .  A
C2361      C2362   1.402       .  A
C2361     Br2369   1.933       .  S
C2362     Br2373   1.935       .  S
C2363      C2364   1.409       .  A
C2363      C2368   1.407       .  A
C2364      C2365   1.405       .  A
C2364     Br2375   1.931       .  S
C2365      C2366   1.410       .  A
C2365     Br2371   1.931       .  S
C2366      C2367   1.409       .  A
C2367      C2368   1.404       .  A
C2367     Br2376   1.931       .  S
C2368     Br2372   1.929       .  S
C2377      C2378   1.416       .  A
C2377      C2382   1.419       .  A
C2378      C2379   1.409       .  A
C2378     Br2390   1.929       .  S
C2379      C2380   1.408       .  A
C2379     Br2394   1.931       .  S
C2380      C2383   1.486       .  S
C2380      C2381   1.407       .  A
C2381      C2382   1.408       .  A
C2381     Br2389   1.932       .  S
C2382     Br2393   1.934       .  S
C2383      C2384   1.408       .  A
C2383      C2388   1.410       .  A
C2384      C2385   1.404       .  A
C2384     Br2395   1.933       .  S
C2385      C2386   1.411       .  A
C2385     Br2391   1.927       .  S
C2386      C2387   1.412       .  A
C2387      C2388   1.411       .  A
C2387     Br2396   1.930       .  S
C2388     Br2392   1.928       .  S
C2397      C2398   1.412       .  A
C2397      C2402   1.415       .  A
C2398      C2399   1.413       .  A
C2398     Br2410   1.929       .  S
C2399      C2400   1.410       .  A
C2399     Br2414   1.926       .  S
C2400      C2403   1.487       .  S
C2400      C2401   1.408       .  A
C2401      C2402   1.404       .  A
C2401     Br2409   1.934       .  S
C2402     Br2413   1.936       .  S
C2403      C2404   1.410       .  A
C2403      C2408   1.408       .  A
C2404      C2405   1.411       .  A
C2404     Br2415   1.928       .  S
C2405      C2406   1.413       .  A
C2405     Br2411   1.929       .  S
C2406      C2407   1.412       .  A
C2407      C2408   1.406       .  A
C2407     Br2416   1.929       .  S
C2408     Br2412   1.931       .  S
C2417      C2418   1.409       .  A
C2417      C2422   1.411       .  A
C2418      C2419   1.405       .  A
C2418     Br2430   1.926       .  S
C2419      C2420   1.410       .  A
C2419     Br2434   1.934       .  S
C2420      C2423   1.486       .  S
C2420      C2421   1.410       .  A
C2421      C2422   1.409       .  A
C2421     Br2429   1.929       .  S
C2422     Br2433   1.927       .  S
C2423      C2424   1.405       .  A
C2423      C2428   1.405       .  A
C2424      C2425   1.406       .  A
C2424     Br2435   1.937       .  S
C2425      C2426   1.427       .  A
C2425     Br2431   1.939       .  S
C2426      C2427   1.425       .  A
C2427      C2428   1.411       .  A
C2427     Br2436   1.933       .  S
C2428     Br2432   1.932       .  S
C2437      C2438   1.415       .  A
C2437      C2442   1.419       .  A
C2438      C2439   1.413       .  A
C2438     Br2450   1.930       .  S
C2439      C2440   1.411       .  A
C2439     Br2454   1.930       .  S
C2440      C2443   1.492   1_554  S
C2440      C2441   1.408       .  A
C2441      C2442   1.406       .  A
C2441     Br2449   1.935       .  S
C2442     Br2453   1.931       .  S
C2443      C2444   1.413       .  A
C2443      C2448   1.412       .  A
C2444      C2445   1.410       .  A
C2444     Br2455   1.930       .  S
C2445      C2446   1.409       .  A
C2445     Br2451   1.928       .  S
C2446      C2447   1.410       .  A
C2447      C2448   1.408       .  A
C2447     Br2456   1.930       .  S
C2448     Br2452   1.932       .  S
C2457      C2458   1.407       .  A
C2457      C2462   1.407       .  A
C2458      C2459   1.412       .  A
C2458     Br2470   1.924       .  S
C2459      C2460   1.413       .  A
C2459     Br2474   1.925       .  S
C2460      C2463   1.493       .  S
C2460      C2461   1.412       .  A
C2461      C2462   1.407       .  A
C2461     Br2469   1.930       .  S
C2462     Br2473   1.926       .  S
C2463      C2464   1.412       .  A
C2463      C2468   1.410       .  A
C2464      C2465   1.416       .  A
C2464     Br2475   1.928       .  S
C2465      C2466   1.413       .  A
C2465     Br2471   1.928       .  S
C2466      C2467   1.413       .  A
C2467      C2468   1.407       .  A
C2467     Br2476   1.933       .  S
C2468     Br2472   1.933       .  S
C2477      C2478   1.418       .  A
C2477      C2482   1.416       .  A
C2478      C2479   1.406       .  A
C2478     Br2490   1.935       .  S
C2479      C2480   1.408       .  A
C2479     Br2494   1.935       .  S
C2480      C2483   1.491       .  S
C2480      C2481   1.410       .  A
C2481      C2482   1.415       .  A
C2481     Br2489   1.928       .  S
C2482     Br2493   1.926       .  S
C2483      C2484   1.411       .  A
C2483      C2488   1.409       .  A
C2484      C2485   1.414       .  A
C2484     Br2495   1.927       .  S
C2485      C2486   1.412       .  A
C2485     Br2491   1.920       .  S
C2486      C2487   1.415       .  A
C2487      C2488   1.405       .  A
C2487     Br2496   1.933       .  S
C2488     Br2492   1.932       .  S
C2497      C2498   1.411       .  A
C2497      C2502   1.411       .  A
C2498      C2499   1.411       .  A
C2498     Br2510   1.928       .  S
C2499      C2500   1.411       .  A
C2499     Br2514   1.929       .  S
C2500      C2503   1.492   1_556  S
C2500      C2501   1.411       .  A
C2501      C2502   1.409       .  A
C2501     Br2509   1.931       .  S
C2502     Br2513   1.928       .  S
C2503      C2504   1.406       .  A
C2503      C2508   1.408       .  A
C2504      C2505   1.407       .  A
C2504     Br2515   1.936       .  S
C2505      C2506   1.426       .  A
C2505     Br2511   1.939       .  S
C2506      C2507   1.421       .  A
C2507      C2508   1.414       .  A
C2507     Br2516   1.931       .  S
C2508     Br2512   1.931       .  S
C2517      C2518   1.414       .  A
C2517      C2522   1.417       .  A
C2518      C2519   1.405       .  A
C2518     Br2530   1.931       .  S
C2519      C2520   1.410       .  A
C2519     Br2534   1.931       .  S
C2520      C2523   1.493       .  S
C2520      C2521   1.411       .  A
C2521      C2522   1.414       .  A
C2521     Br2529   1.930       .  S
C2522     Br2533   1.930       .  S
C2523      C2524   1.413       .  A
C2523      C2528   1.411       .  A
C2524      C2525   1.412       .  A
C2524     Br2535   1.929       .  S
C2525      C2526   1.411       .  A
C2525     Br2531   1.927       .  S
C2526      C2527   1.408       .  A
C2527      C2528   1.405       .  A
C2527     Br2536   1.931       .  S
C2528     Br2532   1.931       .  S
C2537      C2538   1.410       .  A
C2537      C2542   1.410       .  A
C2538      C2539   1.404       .  A
C2538     Br2550   1.928       .  S
C2539      C2540   1.408       .  A
C2539     Br2554   1.930       .  S
C2540      C2543   1.486       .  S
C2540      C2541   1.410       .  A
C2541      C2542   1.411       .  A
C2541     Br2549   1.927       .  S
C2542     Br2553   1.927       .  S
C2543      C2544   1.406       .  A
C2543      C2548   1.405       .  A
C2544      C2545   1.415       .  A
C2544     Br2555   1.929       .  S
C2545      C2546   1.424       .  A
C2545     Br2551   1.931       .  S
C2546      C2547   1.424       .  A
C2547      C2548   1.403       .  A
C2547     Br2556   1.939       .  S
C2548     Br2552   1.938       .  S
C2557      C2558   1.412       .  A
C2557      C2562   1.411       .  A
C2558      C2559   1.407       .  A
C2558     Br2570   1.930       .  S
C2559      C2560   1.409       .  A
C2559     Br2574   1.932       .  S
C2560      C2563   1.493       .  S
C2560      C2561   1.412       .  A
C2561      C2562   1.415       .  A
C2561     Br2569   1.927       .  S
C2562     Br2573   1.923       .  S
C2563      C2564   1.407       .  A
C2563      C2568   1.407       .  A
C2564      C2565   1.414       .  A
C2564     Br2575   1.930       .  S
C2565      C2566   1.423       .  A
C2565     Br2571   1.931       .  S
C2566      C2567   1.422       .  A
C2567      C2568   1.410       .  A
C2567     Br2576   1.935       .  S
C2568     Br2572   1.933       .  S
C2577      C2578   1.416       .  A
C2577      C2582   1.416       .  A
C2578      C2579   1.408       .  A
C2578     Br2590   1.928       .  S
C2579      C2580   1.406       .  A
C2579     Br2594   1.930       .  S
C2580      C2583   1.479       .  S
C2580      C2581   1.405       .  A
C2581      C2582   1.404       .  A
C2581     Br2589   1.932       .  S
C2582     Br2593   1.929       .  S
C2583      C2584   1.404       .  A
C2583      C2588   1.405       .  A
C2584      C2585   1.399       .  A
C2584     Br2595   1.941       .  S
C2585      C2586   1.426       .  A
C2585     Br2591   1.944       .  S
C2586      C2587   1.419       .  A
C2587      C2588   1.413       .  A
C2587     Br2596   1.928       .  S
C2588     Br2592   1.928       .  S
C2597      C2598   1.412       .  A
C2597      C2602   1.409       .  A
C2598      C2599   1.415       .  A
C2598     Br2610   1.926       .  S
C2599      C2600   1.413       .  A
C2599     Br2614   1.927       .  S
C2600      C2603   1.488       .  S
C2600      C2601   1.407       .  A
C2601      C2602   1.401       .  A
C2601     Br2609   1.931       .  S
C2602     Br2613   1.924       .  S
C2603      C2604   1.404       .  A
C2603      C2608   1.407       .  A
C2604      C2605   1.407       .  A
C2604     Br2615   1.934       .  S
C2605      C2606   1.425       .  A
C2605     Br2611   1.934       .  S
C2606      C2607   1.426       .  A
C2607      C2608   1.413       .  A
C2607     Br2616   1.934       .  S
C2608     Br2612   1.932       .  S
C2617      C2618   1.417       .  A
C2617      C2622   1.418       .  A
C2618      C2619   1.405       .  A
C2618     Br2630   1.927       .  S
C2619      C2620   1.407       .  A
C2619     Br2634   1.936       .  S
C2620      C2623   1.493       .  S
C2620      C2621   1.410       .  A
C2621      C2622   1.418       .  A
C2621     Br2629   1.927       .  S
C2622     Br2633   1.926       .  S
C2623      C2624   1.407       .  A
C2623      C2628   1.411       .  A
C2624      C2625   1.407       .  A
C2624     Br2635   1.931       .  S
C2625      C2626   1.417       .  A
C2625     Br2631   1.932       .  S
C2626      C2627   1.414       .  A
C2627      C2628   1.414       .  A
C2627     Br2636   1.927       .  S
C2628     Br2632   1.926       .  S
C2637      C2638   1.423       .  A
C2637      C2642   1.420       .  A
C2638      C2639   1.403       .  A
C2638     Br2650   1.940       .  S
C2639      C2640   1.405       .  A
C2639     Br2654   1.938       .  S
C2640      C2643   1.485       .  S
C2640      C2641   1.407       .  A
C2641      C2642   1.414       .  A
C2641     Br2649   1.929       .  S
C2642     Br2653   1.932       .  S
C2643      C2644   1.406       .  A
C2643      C2648   1.406       .  A
C2644      C2645   1.409       .  A
C2644     Br2655   1.930       .  S
C2645      C2646   1.416       .  A
C2645     Br2651   1.926       .  S
C2646      C2647   1.419       .  A
C2647      C2648   1.408       .  A
C2647     Br2656   1.932       .  S
C2648     Br2652   1.931       .  S
C2657      C2658   1.410       .  A
C2657      C2662   1.412       .  A
C2658      C2659   1.412       .  A
C2658     Br2670   1.927       .  S
C2659      C2660   1.412       .  A
C2659     Br2674   1.929       .  S
C2660      C2663   1.492       .  S
C2660      C2661   1.409       .  A
C2661      C2662   1.409       .  A
C2661     Br2669   1.930       .  S
C2662     Br2673   1.927       .  S
C2663      C2664   1.411       .  A
C2663      C2668   1.409       .  A
C2664      C2665   1.413       .  A
C2664     Br2675   1.929       .  S
C2665      C2666   1.415       .  A
C2665     Br2671   1.931       .  S
C2666      C2667   1.414       .  A
C2667      C2668   1.407       .  A
C2667     Br2676   1.933       .  S
C2668     Br2672   1.932       .  S
C2677      C2678   1.416       .  A
C2677      C2682   1.416       .  A
C2678      C2679   1.413       .  A
C2678     Br2690   1.931       .  S
C2679      C2680   1.410       .  A
C2679     Br2694   1.929       .  S
C2680      C2683   1.491       .  S
C2680      C2681   1.408       .  A
C2681      C2682   1.407       .  A
C2681     Br2689   1.933       .  S
C2682     Br2693   1.934       .  S
C2683      C2684   1.410       .  A
C2683      C2688   1.409       .  A
C2684      C2685   1.412       .  A
C2684     Br2695   1.929       .  S
C2685      C2686   1.415       .  A
C2685     Br2691   1.930       .  S
C2686      C2687   1.416       .  A
C2687      C2688   1.409       .  A
C2687     Br2696   1.931       .  S
C2688     Br2692   1.932       .  S
C2697      C2698   1.413       .  A
C2697      C2702   1.412       .  A
C2698      C2699   1.407       .  A
C2698     Br2710   1.931       .  S
C2699      C2700   1.408       .  A
C2699     Br2714   1.929       .  S
C2700      C2703   1.483       .  S
C2700      C2701   1.409       .  A
C2701      C2702   1.406       .  A
C2701     Br2709   1.931       .  S
C2702     Br2713   1.931       .  S
C2703      C2704   1.410       .  A
C2703      C2708   1.408       .  A
C2704      C2705   1.409       .  A
C2704     Br2715   1.928       .  S
C2705      C2706   1.411       .  A
C2705     Br2711   1.929       .  S
C2706      C2707   1.411       .  A
C2707      C2708   1.404       .  A
C2707     Br2716   1.929       .  S
C2708     Br2712   1.932       .  S
C2717      C2718   1.409       .  A
C2717      C2722   1.409       .  A
C2718      C2719   1.412       .  A
C2718     Br2730   1.928       .  S
C2719      C2720   1.410       .  A
C2719     Br2734   1.926       .  S
C2720      C2723   1.483       .  S
C2720      C2721   1.408       .  A
C2721      C2722   1.400       .  A
C2721     Br2729   1.933       .  S
C2722     Br2733   1.932       .  S
C2723      C2724   1.401       .  A
C2723      C2728   1.404       .  A
C2724      C2725   1.411       .  A
C2724     Br2735   1.932       .  S
C2725      C2726   1.430       .  A
C2725     Br2731   1.936       .  S
C2726      C2727   1.426       .  A
C2727      C2728   1.408       .  A
C2727     Br2736   1.935       .  S
C2728     Br2732   1.935       .  S
C2737      C2738   1.417       .  A
C2737      C2742   1.418       .  A
C2738      C2739   1.412       .  A
C2738     Br2750   1.930       .  S
C2739      C2740   1.409       .  A
C2739     Br2754   1.929       .  S
C2740      C2743   1.488       .  S
C2740      C2741   1.407       .  A
C2741      C2742   1.407       .  A
C2741     Br2749   1.934       .  S
C2742     Br2753   1.932       .  S
C2743      C2744   1.410       .  A
C2743      C2748   1.410       .  A
C2744      C2745   1.409       .  A
C2744     Br2755   1.929       .  S
C2745      C2746   1.409       .  A
C2745     Br2751   1.923       .  S
C2746      C2747   1.409       .  A
C2747      C2748   1.408       .  A
C2747     Br2756   1.929       .  S
C2748     Br2752   1.930       .  S
C2757      C2758   1.410       .  A
C2757      C2762   1.410       .  A
C2758      C2759   1.412       .  A
C2758     Br2770   1.928       .  S
C2759      C2760   1.410       .  A
C2759     Br2774   1.927       .  S
C2760      C2763   1.482       .  S
C2760      C2761   1.407       .  A
C2761      C2762   1.400       .  A
C2761     Br2769   1.932       .  S
C2762     Br2773   1.933       .  S
C2763      C2764   1.408       .  A
C2763      C2768   1.407       .  A
C2764      C2765   1.409       .  A
C2764     Br2775   1.930       .  S
C2765      C2766   1.416       .  A
C2765     Br2771   1.931       .  S
C2766      C2767   1.414       .  A
C2767      C2768   1.405       .  A
C2767     Br2776   1.932       .  S
C2768     Br2772   1.931       .  S
C2777      C2778   1.411       .  A
C2777      C2782   1.410       .  A
C2778      C2779   1.406       .  A
C2778     Br2790   1.932       .  S
C2779      C2780   1.408       .  A
C2779     Br2794   1.929       .  S
C2780      C2783   1.480       .  S
C2780      C2781   1.409       .  A
C2781      C2782   1.406       .  A
C2781     Br2789   1.930       .  S
C2782     Br2793   1.931       .  S
C2783      C2784   1.408       .  A
C2783      C2788   1.408       .  A
C2784      C2785   1.402       .  A
C2784     Br2795   1.933       .  S
C2785      C2786   1.412       .  A
C2785     Br2791   1.935       .  S
C2786      C2787   1.412       .  A
C2787      C2788   1.410       .  A
C2787     Br2796   1.929       .  S
C2788     Br2792   1.927       .  S
C2797      C2798   1.410       .  A
C2797      C2802   1.412       .  A
C2798      C2799   1.409       .  A
C2798     Br2810   1.927       .  S
C2799      C2800   1.410       .  A
C2799     Br2814   1.929       .  S
C2800      C2803   1.489   1_655  S
C2800      C2801   1.409       .  A
C2801      C2802   1.409       .  A
C2801     Br2809   1.930       .  S
C2802     Br2813   1.925       .  S
C2803      C2804   1.408       .  A
C2803      C2808   1.405       .  A
C2804      C2805   1.413       .  A
C2804     Br2815   1.928       .  S
C2805      C2806   1.417       .  A
C2805     Br2811   1.929       .  S
C2806      C2807   1.421       .  A
C2807      C2808   1.407       .  A
C2807     Br2816   1.929       .  S
C2808     Br2812   1.935       .  S
C2817      C2818   1.410       .  A
C2817      C2822   1.409       .  A
C2818      C2819   1.407       .  A
C2818     Br2830   1.929       .  S
C2819      C2820   1.411       .  A
C2819     Br2834   1.931       .  S
C2820      C2823   1.490       .  S
C2820      C2821   1.412       .  A
C2821      C2822   1.410       .  A
C2821     Br2829   1.929       .  S
C2822     Br2833   1.929       .  S
C2823      C2824   1.409       .  A
C2823      C2828   1.413       .  A
C2824      C2825   1.402       .  A
C2824     Br2835   1.936       .  S
C2825      C2826   1.416       .  A
C2825     Br2831   1.935       .  S
C2826      C2827   1.412       .  A
C2827      C2828   1.416       .  A
C2827     Br2836   1.927       .  S
C2828     Br2832   1.927       .  S
C2837      C2838   1.425       .  A
C2837      C2842   1.422       .  A
C2838      C2839   1.405       .  A
C2838     Br2850   1.938       .  S
C2839      C2840   1.406       .  A
C2839     Br2854   1.938       .  S
C2840      C2843   1.491       .  S
C2840      C2841   1.408       .  A
C2841      C2842   1.417       .  A
C2841     Br2849   1.929       .  S
C2842     Br2853   1.930       .  S
C2843      C2844   1.411       .  A
C2843      C2848   1.409       .  A
C2844      C2845   1.411       .  A
C2844     Br2855   1.929       .  S
C2845      C2846   1.409       .  A
C2845     Br2851   1.917       .  S
C2846      C2847   1.409       .  A
C2847      C2848   1.408       .  A
C2847     Br2856   1.926       .  S
C2848     Br2852   1.927       .  S
C2857      C2858   1.425       .  A
C2857      C2862   1.423       .  A
C2858      C2859   1.408       .  A
C2858     Br2870   1.937       .  S
C2859      C2860   1.407       .  A
C2859     Br2874   1.935       .  S
C2860      C2863   1.492   1_556  S
C2860      C2861   1.407       .  A
C2861      C2862   1.412       .  A
C2861     Br2869   1.931       .  S
C2862     Br2873   1.933       .  S
C2863      C2864   1.410       .  A
C2863      C2868   1.410       .  A
C2864      C2865   1.408       .  A
C2864     Br2875   1.932       .  S
C2865      C2866   1.415       .  A
C2865     Br2871   1.930       .  S
C2866      C2867   1.412       .  A
C2867      C2868   1.411       .  A
C2867     Br2876   1.925       .  S
C2868     Br2872   1.931       .  S
C2877      C2878   1.419       .  A
C2877      C2882   1.421       .  A
C2878      C2879   1.408       .  A
C2878     Br2890   1.934       .  S
C2879      C2880   1.408       .  A
C2879     Br2894   1.934   1_655  S
C2880      C2883   1.489   1_655  S
C2880      C2881   1.407       .  A
C2881      C2882   1.412       .  A
C2881     Br2889   1.930       .  S
C2882     Br2893   1.931       .  S
C2883      C2884   1.409       .  A
C2883      C2888   1.409       .  A
C2884      C2885   1.409       .  A
C2884     Br2895   1.929       .  S
C2885      C2886   1.412       .  A
C2885     Br2891   1.929       .  S
C2886      C2887   1.413       .  A
C2887      C2888   1.410       .  A
C2887     Br2896   1.930       .  S
C2888     Br2892   1.929       .  S
C2897      C2898   1.413       .  A
C2897      C2902   1.411       .  A
C2898      C2899   1.402       .  A
C2898     Br2910   1.935       .  S
C2899      C2900   1.407       .  A
C2899     Br2914   1.933       .  S
C2900      C2903   1.483       .  S
C2900      C2901   1.409       .  A
C2901      C2902   1.412       .  A
C2901     Br2909   1.926       .  S
C2902     Br2913   1.926       .  S
C2903      C2904   1.409       .  A
C2903      C2908   1.409       .  A
C2904      C2905   1.402       .  A
C2904     Br2915   1.934       .  S
C2905      C2906   1.409       .  A
C2905     Br2911   1.931       .  S
C2906      C2907   1.412       .  A
C2907      C2908   1.412       .  A
C2907     Br2916   1.929       .  S
C2908     Br2912   1.927       .  S
C2917      C2918   1.411       .  A
C2917      C2922   1.412       .  A
C2918      C2919   1.403       .  A
C2918     Br2930   1.933       .  S
C2919      C2920   1.411       .  A
C2919     Br2934   1.932       .  S
C2920      C2923   1.491       .  S
C2920      C2921   1.413       .  A
C2921      C2922   1.413       .  A
C2921     Br2929   1.929       .  S
C2922     Br2933   1.928       .  S
C2923      C2924   1.409       .  A
C2923      C2928   1.409       .  A
C2924      C2925   1.406       .  A
C2924     Br2935   1.934       .  S
C2925      C2926   1.417       .  A
C2925     Br2931   1.931       .  S
C2926      C2927   1.421       .  A
C2927      C2928   1.413       .  A
C2927     Br2936   1.932       .  S
C2928     Br2932   1.932       .  S
C2937      C2938   1.420       .  A
C2937      C2942   1.420       .  A
C2938      C2939   1.406       .  A
C2938     Br2950   1.937       .  S
C2939      C2940   1.408       .  A
C2939     Br2954   1.937       .  S
C2940      C2943   1.482       .  S
C2940      C2941   1.404       .  A
C2941      C2942   1.409       .  A
C2941     Br2949   1.930       .  S
C2942     Br2953   1.931       .  S
C2943      C2944   1.411       .  A
C2943      C2948   1.408       .  A
C2944      C2945   1.407       .  A
C2944     Br2955   1.929       .  S
C2945      C2946   1.406       .  A
C2945     Br2951   1.928       .  S
C2946      C2947   1.407       .  A
C2947      C2948   1.404       .  A
C2947     Br2956   1.929       .  S
C2948     Br2952   1.929       .  S
C2957      C2958   1.417       .  A
C2957      C2962   1.414       .  A
C2958      C2959   1.402       .  A
C2958     Br2970   1.936       .  S
C2959      C2960   1.406       .  A
C2959     Br2974   1.933       .  S
C2960      C2963   1.483   1_556  S
C2960      C2961   1.410       .  A
C2961      C2962   1.412       .  A
C2961     Br2969   1.927       .  S
C2962     Br2973   1.930       .  S
C2963      C2964   1.409       .  A
C2963      C2968   1.408       .  A
C2964      C2965   1.410       .  A
C2964     Br2975   1.930       .  S
C2965      C2966   1.415       .  A
C2965     Br2971   1.931       .  S
C2966      C2967   1.408       .  A
C2967      C2968   1.404       .  A
C2967     Br2976   1.923       .  S
C2968     Br2972   1.930       .  S
C2977      C2978   1.410       .  A
C2977      C2982   1.411       .  A
C2978      C2979   1.409       .  A
C2978     Br2990   1.930       .  S
C2979      C2980   1.409       .  A
C2979     Br2994   1.927       .  S
C2980      C2983   1.483       .  S
C2980      C2981   1.409       .  A
C2981      C2982   1.405       .  A
C2981     Br2989   1.933       .  S
C2982     Br2993   1.930       .  S
C2983      C2984   1.407       .  A
C2983      C2988   1.404       .  A
C2984      C2985   1.412       .  A
C2984     Br2995   1.929       .  S
C2985      C2986   1.421       .  A
C2985     Br2991   1.930       .  S
C2986      C2987   1.420       .  A
C2987      C2988   1.403       .  A
C2987     Br2996   1.932       .  S
C2988     Br2992   1.934       .  S
C2997      C2998   1.411       .  A
C2997      C3002   1.409       .  A
C2998      C2999   1.406       .  A
C2998     Br3010   1.930       .  S
C2999      C3000   1.408       .  A
C2999     Br3014   1.929       .  S
C3000      C3003   1.479       .  S
C3000      C3001   1.408       .  A
C3001      C3002   1.405       .  A
C3001     Br3009   1.930       .  S
C3002     Br3013   1.929       .  S
C3003      C3004   1.409       .  A
C3003      C3008   1.406       .  A
C3004      C3005   1.412       .  A
C3004     Br3015   1.927       .  S
C3005      C3006   1.414       .  A
C3005     Br3011   1.929       .  S
C3006      C3007   1.414       .  A
C3007      C3008   1.398       .  A
C3007     Br3016   1.936       .  S
C3008     Br3012   1.935       .  S
C3017      C3018   1.408       .  A
C3017      C3022   1.407       .  A
C3018      C3019   1.410       .  A
C3018     Br3030   1.929       .  S
C3019      C3020   1.412       .  A
C3019     Br3034   1.927       .  S
C3020      C3023   1.490       .  S
C3020      C3021   1.412       .  A
C3021      C3022   1.407       .  A
C3021     Br3029   1.930       .  S
C3022     Br3033   1.931       .  S
C3023      C3024   1.411       .  A
C3023      C3028   1.410       .  A
C3024      C3025   1.413       .  A
C3024     Br3035   1.926       .  S
C3025      C3026   1.411       .  A
C3025     Br3031   1.927       .  S
C3026      C3027   1.413       .  A
C3027      C3028   1.403       .  A
C3027     Br3036   1.937       .  S
C3028     Br3032   1.929       .  S
C3037      C3038   1.436       .  A
C3037      C3042   1.428       .  A
C3038      C3039   1.403       .  A
C3038     Br3050   1.947       .  S
C3039      C3040   1.402       .  A
C3039     Br3054   1.944       .  S
C3040      C3043   1.482       .  S
C3040      C3041   1.403       .  A
C3041      C3042   1.414       .  A
C3041     Br3049   1.930       .  S
C3042     Br3053   1.934       .  S
C3043      C3044   1.407       .  A
C3043      C3048   1.408       .  A
C3044      C3045   1.406       .  A
C3044     Br3055   1.930       .  S
C3045      C3046   1.411       .  A
C3045     Br3051   1.928       .  S
C3046      C3047   1.409       .  A
C3047      C3048   1.409       .  A
C3047     Br3056   1.918       .  S
C3048     Br3052   1.929       .  S
C3057      C3058   1.412       .  A
C3057      C3062   1.412       .  A
C3058      C3059   1.414       .  A
C3058     Br3070   1.929       .  S
C3059      C3060   1.412       .  A
C3059     Br3074   1.927       .  S
C3060      C3063   1.498       .  S
C3060      C3061   1.411       .  A
C3061      C3062   1.411       .  A
C3061     Br3069   1.930       .  S
C3062     Br3073   1.931       .  S
C3063      C3064   1.409       .  A
C3063      C3068   1.408       .  A
C3064      C3065   1.415       .  A
C3064     Br3075   1.930       .  S
C3065      C3066   1.420       .  A
C3065     Br3071   1.929       .  S
C3066      C3067   1.420       .  A
C3067      C3068   1.413       .  A
C3067     Br3076   1.931       .  S
C3068     Br3072   1.931       .  S
C3077      C3078   1.414       .  A
C3077      C3082   1.411       .  A
C3078      C3079   1.410       .  A
C3078     Br3090   1.931       .  S
C3079      C3080   1.409       .  A
C3079     Br3094   1.929       .  S
C3080      C3083   1.485       .  S
C3080      C3081   1.409       .  A
C3081      C3082   1.406       .  A
C3081     Br3089   1.932       .  S
C3082     Br3093   1.931       .  S
C3083      C3084   1.409       .  A
C3083      C3088   1.407       .  A
C3084      C3085   1.410       .  A
C3084     Br3095   1.929       .  S
C3085      C3086   1.413       .  A
C3085     Br3091   1.929       .  S
C3086      C3087   1.414       .  A
C3087      C3088   1.406       .  A
C3087     Br3096   1.930       .  S
C3088     Br3092   1.931       .  S
C3097      C3098   1.414       .  A
C3097      C3102   1.415       .  A
C3098      C3099   1.408       .  A
C3098     Br3110   1.931       .  S
C3099      C3100   1.409       .  A
C3099     Br3114   1.932       .  S
C3100      C3103   1.487       .  S
C3100      C3101   1.408       .  A
C3101      C3102   1.409       .  A
C3101     Br3109   1.931       .  S
C3102     Br3113   1.931       .  S
C3103      C3104   1.409       .  A
C3103      C3108   1.411       .  A
C3104      C3105   1.405       .  A
C3104     Br3115   1.933       .  S
C3105      C3106   1.412       .  A
C3105     Br3111   1.931       .  S
C3106      C3107   1.410       .  A
C3107      C3108   1.410       .  A
C3107     Br3116   1.930       .  S
C3108     Br3112   1.928       .  S
C3117      C3118   1.417       .  A
C3117      C3122   1.421       .  A
C3118      C3119   1.405       .  A
C3118     Br3130   1.932       .  S
C3119      C3120   1.406       .  A
C3119     Br3134   1.933       .  S
C3120      C3123   1.484       .  S
C3120      C3121   1.406       .  A
C3121      C3122   1.411       .  A
C3121     Br3129   1.929       .  S
C3122     Br3133   1.931       .  S
C3123      C3124   1.409       .  A
C3123      C3128   1.410       .  A
C3124      C3125   1.401       .  A
C3124     Br3135   1.927       .  S
C3125      C3126   1.408       .  A
C3125     Br3131   1.934       .  S
C3126      C3127   1.410       .  A
C3127      C3128   1.411       .  A
C3127     Br3136   1.929       .  S
C3128     Br3132   1.926       .  S
C3137      C3138   1.417       .  A
C3137      C3142   1.415       .  A
C3138      C3139   1.409       .  A
C3138     Br3150   1.933       .  S
C3139      C3140   1.409       .  A
C3139     Br3154   1.933       .  S
C3140      C3143   1.491       .  S
C3140      C3141   1.409       .  A
C3141      C3142   1.412       .  A
C3141     Br3149   1.929       .  S
C3142     Br3153   1.929       .  S
C3143      C3144   1.411       .  A
C3143      C3148   1.410       .  A
C3144      C3145   1.409       .  A
C3144     Br3155   1.931       .  S
C3145      C3146   1.412       .  A
C3145     Br3151   1.932       .  S
C3146      C3147   1.413       .  A
C3147      C3148   1.410       .  A
C3147     Br3156   1.930       .  S
C3148     Br3152   1.929       .  S
C3157      C3158   1.406       .  A
C3157      C3162   1.409       .  A
C3158      C3159   1.398       .  A
C3158     Br3170   1.930       .  S
C3159      C3160   1.410       .  A
C3159     Br3174   1.934       .  S
C3160      C3163   1.478       .  S
C3160      C3161   1.410       .  A
C3161      C3162   1.409       .  A
C3161     Br3169   1.927       .  S
C3162     Br3173   1.929       .  S
C3163      C3164   1.407       .  A
C3163      C3168   1.406       .  A
C3164      C3165   1.405       .  A
C3164     Br3175   1.933       .  S
C3165      C3166   1.414       .  A
C3165     Br3171   1.928       .  S
C3166      C3167   1.417       .  A
C3167      C3168   1.405       .  A
C3167     Br3176   1.934       .  S
C3168     Br3172   1.931       .  S
C3177      C3178   1.415       .  A
C3177      C3182   1.416       .  A
C3178      C3179   1.412       .  A
C3178     Br3190   1.928       .  S
C3179      C3180   1.408       .  A
C3179     Br3194   1.928       .  S
C3180      C3183   1.483       .  S
C3180      C3181   1.407       .  A
C3181      C3182   1.402       .  A
C3181     Br3189   1.934       .  S
C3182     Br3193   1.936       .  S
C3183      C3184   1.410       .  A
C3183      C3188   1.407       .  A
C3184      C3185   1.408       .  A
C3184     Br3195   1.928       .  S
C3185      C3186   1.410       .  A
C3185     Br3191   1.930       .  S
C3186      C3187   1.414       .  A
C3187      C3188   1.406       .  A
C3187     Br3196   1.933       .  S
C3188     Br3192   1.931       .  S
C3197      C3198   1.413       .  A
C3197      C3202   1.409       .  A
C3198      C3199   1.411       .  A
C3198     Br3210   1.931       .  S
C3199      C3200   1.412       .  A
C3199     Br3214   1.932       .  S
C3200      C3203   1.493   1_554  S
C3200      C3201   1.413       .  A
C3201      C3202   1.409       .  A
C3201     Br3209   1.931       .  S
C3202     Br3213   1.929       .  S
C3203      C3204   1.408       .  A
C3203      C3208   1.413       .  A
C3204      C3205   1.403       .  A
C3204     Br3215   1.933       .  S
C3205      C3206   1.416       .  A
C3205     Br3211   1.932       .  S
C3206      C3207   1.416       .  A
C3207      C3208   1.415       .  A
C3207     Br3216   1.930       .  S
C3208     Br3212   1.929       .  S
C3217      C3218   1.405       .  A
C3217      C3222   1.407       .  A
C3218      C3219   1.408       .  A
C3218     Br3230   1.924       .  S
C3219      C3220   1.414       .  A
C3219     Br3234   1.931       .  S
C3220      C3223   1.494       .  S
C3220      C3221   1.414       .  A
C3221      C3222   1.412       .  A
C3221     Br3229   1.927       .  S
C3222     Br3233   1.925       .  S
C3223      C3224   1.412       .  A
C3223      C3228   1.414       .  A
C3224      C3225   1.405       .  A
C3224     Br3235   1.930       .  S
C3225      C3226   1.410       .  A
C3225     Br3231   1.934       .  S
C3226      C3227   1.409       .  A
C3227      C3228   1.414       .  A
C3227     Br3236   1.928       .  S
C3228     Br3232   1.927       .  S
C3237      C3238   1.418       .  A
C3237      C3242   1.419       .  A
C3238      C3239   1.412       .  A
C3238     Br3250   1.930       .  S
C3239      C3240   1.408       .  A
C3239     Br3254   1.929       .  S
C3240      C3243   1.488       .  S
C3240      C3241   1.407       .  A
C3241      C3242   1.406       .  A
C3241     Br3249   1.933       .  S
C3242     Br3253   1.934       .  S
C3243      C3244   1.411       .  A
C3243      C3248   1.408       .  A
C3244      C3245   1.413       .  A
C3244     Br3255   1.927       .  S
C3245      C3246   1.411       .  A
C3245     Br3251   1.927       .  S
C3246      C3247   1.413       .  A
C3247      C3248   1.404       .  A
C3247     Br3256   1.931       .  S
C3248     Br3252   1.933       .  S
C3257      C3258   1.417       .  A
C3257      C3262   1.418       .  A
C3258      C3259   1.411       .  A
C3258     Br3270   1.930       .  S
C3259      C3260   1.409       .  A
C3259     Br3274   1.931       .  S
C3260      C3263   1.493   1_554  S
C3260      C3261   1.408       .  A
C3261      C3262   1.411       .  A
C3261     Br3269   1.930       .  S
C3262     Br3273   1.933       .  S
C3263      C3264   1.409       .  A
C3263      C3268   1.407       .  A
C3264      C3265   1.413       .  A
C3264     Br3275   1.929       .  S
C3265      C3266   1.418       .  A
C3265     Br3271   1.932       .  S
C3266      C3267   1.419       .  A
C3267      C3268   1.409       .  A
C3267     Br3276   1.930       .  S
C3268     Br3272   1.933       .  S
C3277      C3278   1.414       .  A
C3277      C3282   1.413       .  A
C3278      C3279   1.405       .  A
C3278     Br3290   1.933       .  S
C3279      C3280   1.407       .  A
C3279     Br3294   1.932       .  S
C3280      C3283   1.481   1_545  S
C3280      C3281   1.408       .  A
C3281      C3282   1.408       .  A
C3281     Br3289   1.930       .  S
C3282     Br3293   1.929       .  S
C3283      C3284   1.409       .  A
C3283      C3288   1.408       .  A
C3284      C3285   1.408       .  A
C3284     Br3295   1.930       .  S
C3285      C3286   1.412       .  A
C3285     Br3291   1.931       .  S
C3286      C3287   1.409       .  A
C3287      C3288   1.404       .  A
C3287     Br3296   1.927       .  S
C3288     Br3292   1.931       .  S
C3297      C3298   1.411       .  A
C3297      C3302   1.411       .  A
C3298      C3299   1.410       .  A
C3298     Br3310   1.925       .  S
C3299      C3300   1.409       .  A
C3299     Br3314   1.928       .  S
C3300      C3303   1.484       .  S
C3300      C3301   1.409       .  A
C3301      C3302   1.403       .  A
C3301     Br3309   1.934       .  S
C3302     Br3313   1.928       .  S
C3303      C3304   1.408       .  A
C3303      C3308   1.406       .  A
C3304      C3305   1.410       .  A
C3304     Br3315   1.930       .  S
C3305      C3306   1.418       .  A
C3305     Br3311   1.932       .  S
C3306      C3307   1.419       .  A
C3307      C3308   1.406       .  A
C3307     Br3316   1.935       .  S
C3308     Br3312   1.933       .  S
C3317      C3318   1.410       .  A
C3317      C3322   1.410       .  A
C3318      C3319   1.414       .  A
C3318     Br3330   1.928       .  S
C3319      C3320   1.412       .  A
C3319     Br3334   1.926       .  S
C3320      C3323   1.492       .  S
C3320      C3321   1.410       .  A
C3321      C3322   1.407       .  A
C3321     Br3329   1.930       .  S
C3322     Br3333   1.928       .  S
C3323      C3324   1.405       .  A
C3323      C3328   1.409       .  A
C3324      C3325   1.405       .  A
C3324     Br3335   1.937       .  S
C3325      C3326   1.424       .  A
C3325     Br3331   1.937       .  S
C3326      C3327   1.419       .  A
C3327      C3328   1.419       .  A
C3327     Br3336   1.923       .  S
C3328     Br3332   1.928       .  S
C3337      C3338   1.405       .  A
C3337      C3342   1.410       .  A
C3338      C3339   1.410       .  A
C3338     Br3350   1.925       .  S
C3339      C3340   1.413       .  A
C3339     Br3354   1.927       .  S
C3340      C3343   1.495       .  S
C3340      C3341   1.412       .  A
C3341      C3342   1.410       .  A
C3341     Br3349   1.930       .  S
C3342     Br3353   1.928       .  S
C3343      C3344   1.410       .  A
C3343      C3348   1.412       .  A
C3344      C3345   1.406       .  A
C3344     Br3355   1.936       .  S
C3345      C3346   1.417       .  A
C3345     Br3351   1.937       .  S
C3346      C3347   1.414       .  A
C3347      C3348   1.416       .  A
C3347     Br3356   1.928       .  S
C3348     Br3352   1.927       .  S
C3357      C3358   1.423       .  A
C3357      C3362   1.429       .  A
C3358      C3359   1.413       .  A
C3358     Br3370   1.932       .  S
C3359      C3360   1.406       .  A
C3359     Br3374   1.930       .  S
C3360      C3363   1.492   1_545  S
C3360      C3361   1.405       .  A
C3361      C3362   1.410       .  A
C3361     Br3369   1.936       .  S
C3362     Br3373   1.938       .  S
C3363      C3364   1.410       .  A
C3363      C3368   1.411       .  A
C3364      C3365   1.408       .  A
C3364     Br3375   1.930       .  S
C3365      C3366   1.409       .  A
C3365     Br3371   1.930       .  S
C3366      C3367   1.409       .  A
C3367      C3368   1.412       .  A
C3367     Br3376   1.929       .  S
C3368     Br3372   1.928       .  S
C3377      C3378   1.410       .  A
C3377      C3382   1.410       .  A
C3378      C3379   1.414       .  A
C3378     Br3390   1.927       .  S
C3379      C3380   1.413       .  A
C3379     Br3394   1.927       .  S
C3380      C3383   1.493       .  S
C3380      C3381   1.411       .  A
C3381      C3382   1.405       .  A
C3381     Br3389   1.933       .  S
C3382     Br3393   1.932       .  S
C3383      C3384   1.413       .  A
C3383      C3388   1.413       .  A
C3384      C3385   1.412       .  A
C3384     Br3395   1.927       .  S
C3385      C3386   1.408       .  A
C3385     Br3391   1.928       .  S
C3386      C3387   1.408       .  A
C3387      C3388   1.407       .  A
C3387     Br3396   1.931       .  S
C3388     Br3392   1.931       .  S
C3397      C3398   1.419       .  A
C3397      C3402   1.421       .  A
C3398      C3399   1.411       .  A
C3398     Br3410   1.931       .  S
C3399      C3400   1.407       .  A
C3399     Br3414   1.930       .  S
C3400      C3403   1.486       .  S
C3400      C3401   1.406       .  A
C3401      C3402   1.407       .  A
C3401     Br3409   1.935       .  S
C3402     Br3413   1.933       .  S
C3403      C3404   1.410       .  A
C3403      C3408   1.407       .  A
C3404      C3405   1.411       .  A
C3404     Br3415   1.929       .  S
C3405      C3406   1.414       .  A
C3405     Br3411   1.929       .  S
C3406      C3407   1.415       .  A
C3407      C3408   1.404       .  A
C3407     Br3416   1.934       .  S
C3408     Br3412   1.933       .  S
C3417      C3418   1.409       .  A
C3417      C3422   1.406       .  A
C3418      C3419   1.405       .  A
C3418     Br3430   1.929       .  S
C3419      C3420   1.406       .  A
C3419     Br3434   1.927       .  S
C3420      C3423   1.469       .  S
C3420      C3421   1.409       .  A
C3421      C3422   1.397       .  A
C3421     Br3429   1.933       .  S
C3422     Br3433   1.935       .  S
C3423      C3424   1.404       .  A
C3423      C3428   1.404       .  A
C3424      C3425   1.402       .  A
C3424     Br3435   1.931       .  S
C3425      C3426   1.416       .  A
C3425     Br3431   1.933       .  S
C3426      C3427   1.414       .  A
C3427      C3428   1.402       .  A
C3427     Br3436   1.932       .  S
C3428     Br3432   1.930       .  S
C3437      C3438   1.421       .  A
C3437      C3442   1.425       .  A
C3438      C3439   1.413       .  A
C3438     Br3450   1.932       .  S
C3439      C3440   1.406       .  A
C3439     Br3454   1.929       .  S
C3440      C3443   1.487       .  S
C3440      C3441   1.405       .  A
C3441      C3442   1.406       .  A
C3441     Br3449   1.936       .  S
C3442     Br3453   1.938       .  S
C3443      C3444   1.410       .  A
C3443      C3448   1.410       .  A
C3444      C3445   1.409       .  A
C3444     Br3455   1.927       .  S
C3445      C3446   1.409       .  A
C3445     Br3451   1.929       .  S
C3446      C3447   1.408       .  A
C3447      C3448   1.407       .  A
C3447     Br3456   1.928       .  S
C3448     Br3452   1.930       .  S
C3457      C3458   1.412       .  A
C3457      C3462   1.413       .  A
C3458      C3459   1.408       .  A
C3458     Br3470   1.931       .  S
C3459      C3460   1.410       .  A
C3459     Br3474   1.931       .  S
C3460      C3463   1.483       .  S
C3460      C3461   1.407       .  A
C3461      C3462   1.406       .  A
C3461     Br3469   1.930       .  S
C3462     Br3473   1.930       .  S
C3463      C3464   1.406       .  A
C3463      C3468   1.410       .  A
C3464      C3465   1.403       .  A
C3464     Br3475   1.933       .  S
C3465      C3466   1.413       .  A
C3465     Br3471   1.930       .  S
C3466      C3467   1.412       .  A
C3467      C3468   1.412       .  A
C3467     Br3476   1.929       .  S
C3468     Br3472   1.928       .  S
C3477      C3478   1.410       .  A
C3477      C3482   1.408       .  A
C3478      C3479   1.410       .  A
C3478     Br3490   1.929       .  S
C3479      C3480   1.411       .  A
C3479     Br3494   1.928       .  S
C3480      C3483   1.487       .  S
C3480      C3481   1.410       .  A
C3481      C3482   1.406       .  A
C3481     Br3489   1.930       .  S
C3482     Br3493   1.930       .  S
C3483      C3484   1.408       .  A
C3483      C3488   1.406       .  A
C3484      C3485   1.412       .  A
C3484     Br3495   1.928       .  S
C3485      C3486   1.417       .  A
C3485     Br3491   1.930       .  S
C3486      C3487   1.421       .  A
C3487      C3488   1.406       .  A
C3487     Br3496   1.936       .  S
C3488     Br3492   1.934       .  S
C3497      C3498   1.426       .  A
C3497      C3502   1.432       .  A
C3498      C3499   1.414       .  A
C3498     Br3510   1.930       .  S
C3499      C3500   1.405       .  A
C3499     Br3514   1.932       .  S
C3500      C3503   1.485       .  S
C3500      C3501   1.402       .  A
C3501      C3502   1.406       .  A
C3501     Br3509   1.940       .  S
C3502     Br3513   1.935       .  S
C3503      C3504   1.407       .  A
C3503      C3508   1.408       .  A
C3504      C3505   1.406       .  A
C3504     Br3515   1.933       .  S
C3505      C3506   1.416       .  A
C3505     Br3511   1.928       .  S
C3506      C3507   1.419       .  A
C3507      C3508   1.409       .  A
C3507     Br3516   1.934       .  S
C3508     Br3512   1.931       .  S
C3517      C3518   1.411       .  A
C3517      C3522   1.413       .  A
C3518      C3519   1.409       .  A
C3518     Br3530   1.922       .  S
C3519      C3520   1.408       .  A
C3519     Br3534   1.929       .  S
C3520      C3523   1.482       .  S
C3520      C3521   1.406       .  A
C3521      C3522   1.404       .  A
C3521     Br3529   1.931       .  S
C3522     Br3533   1.928       .  S
C3523      C3524   1.406       .  A
C3523      C3528   1.406       .  A
C3524      C3525   1.410       .  A
C3524     Br3535   1.929       .  S
C3525      C3526   1.417       .  A
C3525     Br3531   1.931       .  S
C3526      C3527   1.416       .  A
C3527      C3528   1.405       .  A
C3527     Br3536   1.924       .  S
C3528     Br3532   1.935       .  S
C3537      C3538   1.412       .  A
C3537      C3542   1.409       .  A
C3538      C3539   1.404       .  A
C3538     Br3550   1.931       .  S
C3539      C3540   1.408       .  A
C3539     Br3554   1.933       .  S
C3540      C3543   1.485       .  S
C3540      C3541   1.410       .  A
C3541      C3542   1.410       .  A
C3541     Br3549   1.926       .  S
C3542     Br3553   1.928       .  S
C3543      C3544   1.407       .  A
C3543      C3548   1.407       .  A
C3544      C3545   1.405       .  A
C3544     Br3555   1.933       .  S
C3545      C3546   1.415       .  A
C3545     Br3551   1.930       .  S
C3546      C3547   1.418       .  A
C3547      C3548   1.411       .  A
C3547     Br3556   1.930       .  S
C3548     Br3552   1.929       .  S
C3557      C3558   1.415       .  A
C3557      C3562   1.415       .  A
C3558      C3559   1.407       .  A
C3558     Br3570   1.932       .  S
C3559      C3560   1.408       .  A
C3559     Br3574   1.931       .  S
C3560      C3563   1.484       .  S
C3560      C3561   1.407       .  A
C3561      C3562   1.408       .  A
C3561     Br3569   1.930       .  S
C3562     Br3573   1.932       .  S
C3563      C3564   1.406       .  A
C3563      C3568   1.410       .  A
C3564      C3565   1.404       .  A
C3564     Br3575   1.933       .  S
C3565      C3566   1.413       .  A
C3565     Br3571   1.926       .  S
C3566      C3567   1.413       .  A
C3567      C3568   1.411       .  A
C3567     Br3576   1.929       .  S
C3568     Br3572   1.928       .  S
C3577      C3578   1.421       .  A
C3577      C3582   1.421       .  A
C3578      C3579   1.413       .  A
C3578     Br3590   1.932       .  S
C3579      C3580   1.407       .  A
C3579     Br3594   1.930       .  S
C3580      C3583   1.490       .  S
C3580      C3581   1.407       .  A
C3581      C3582   1.408       .  A
C3581     Br3589   1.935       .  S
C3582     Br3593   1.934       .  S
C3583      C3584   1.410       .  A
C3583      C3588   1.410       .  A
C3584      C3585   1.409       .  A
C3584     Br3595   1.928       .  S
C3585      C3586   1.408       .  A
C3585     Br3591   1.924       .  S
C3586      C3587   1.412       .  A
C3587      C3588   1.409       .  A
C3587     Br3596   1.931       .  S
C3588     Br3592   1.931       .  S
C3597      C3598   1.411       .  A
C3597      C3602   1.415       .  A
C3598      C3599   1.406       .  A
C3598     Br3610   1.930       .  S
C3599      C3600   1.408       .  A
C3599     Br3614   1.930       .  S
C3600      C3603   1.483       .  S
C3600      C3601   1.408       .  A
C3601      C3602   1.408       .  A
C3601     Br3609   1.931       .  S
C3602     Br3613   1.931       .  S
C3603      C3604   1.409       .  A
C3603      C3608   1.409       .  A
C3604      C3605   1.402       .  A
C3604     Br3615   1.932       .  S
C3605      C3606   1.412       .  A
C3605     Br3611   1.935       .  S
C3606      C3607   1.410       .  A
C3607      C3608   1.410       .  A
C3607     Br3616   1.930       .  S
C3608     Br3612   1.927       .  S
C3617      C3618   1.413       .  A
C3617      C3622   1.412       .  A
C3618      C3619   1.402       .  A
C3618     Br3630   1.935       .  S
C3619      C3620   1.408       .  A
C3619     Br3634   1.932       .  S
C3620      C3623   1.483       .  S
C3620      C3621   1.409       .  A
C3621      C3622   1.411       .  A
C3621     Br3629   1.927       .  S
C3622     Br3633   1.929       .  S
C3623      C3624   1.408       .  A
C3623      C3628   1.408       .  A
C3624      C3625   1.407       .  A
C3624     Br3635   1.930       .  S
C3625      C3626   1.412       .  A
C3625     Br3631   1.931       .  S
C3626      C3627   1.415       .  A
C3627      C3628   1.407       .  A
C3627     Br3636   1.933       .  S
C3628     Br3632   1.931       .  S
C3637      C3638   1.414       .  A
C3637      C3642   1.411       .  A
C3638      C3639   1.408       .  A
C3638     Br3650   1.931       .  S
C3639      C3640   1.409       .  A
C3639     Br3654   1.930       .  S
C3640      C3643   1.484   1_655  S
C3640      C3641   1.410       .  A
C3641      C3642   1.405       .  A
C3641     Br3649   1.932       .  S
C3642     Br3653   1.933       .  S
C3643      C3644   1.410       .  A
C3643      C3648   1.407       .  A
C3644      C3645   1.410       .  A
C3644     Br3655   1.929       .  S
C3645      C3646   1.411       .  A
C3645     Br3651   1.927       .  S
C3646      C3647   1.414       .  A
C3647      C3648   1.404       .  A
C3647     Br3656   1.930       .  S
C3648     Br3652   1.933       .  S
C3657      C3658   1.412       .  A
C3657      C3662   1.410       .  A
C3658      C3659   1.408       .  A
C3658     Br3670   1.928       .  S
C3659      C3660   1.408       .  A
C3659     Br3674   1.930       .  S
C3660      C3663   1.488   1_545  S
C3660      C3661   1.411       .  A
C3661      C3662   1.410       .  A
C3661     Br3669   1.928       .  S
C3662     Br3673   1.928       .  S
C3663      C3664   1.407       .  A
C3663      C3668   1.408       .  A
C3664      C3665   1.406       .  A
C3664     Br3675   1.934       .  S
C3665      C3666   1.419       .  A
C3665     Br3671   1.934       .  S
C3666      C3667   1.418       .  A
C3667      C3668   1.412       .  A
C3667     Br3676   1.932       .  S
C3668     Br3672   1.929       .  S
C3677      C3678   1.407       .  A
C3677      C3682   1.409       .  A
C3678      C3679   1.400       .  A
C3678     Br3690   1.934       .  S
C3679      C3680   1.409       .  A
C3679     Br3694   1.929       .  S
C3680      C3683   1.480       .  S
C3680      C3681   1.410       .  A
C3681      C3682   1.410       .  A
C3681     Br3689   1.927       .  S
C3682     Br3693   1.926       .  S
C3683      C3684   1.409       .  A
C3683      C3688   1.409       .  A
C3684      C3685   1.403       .  A
C3684     Br3695   1.931       .  S
C3685      C3686   1.408       .  A
C3685     Br3691   1.930       .  S
C3686      C3687   1.407       .  A
C3687      C3688   1.408       .  A
C3687     Br3696   1.924       .  S
C3688     Br3692   1.928       .  S
C3697      C3698   1.415       .  A
C3697      C3702   1.416       .  A
C3698      C3699   1.404       .  A
C3698     Br3710   1.934       .  S
C3699      C3700   1.410       .  A
C3699     Br3714   1.934       .  S
C3700      C3703   1.491       .  S
C3700      C3701   1.412       .  A
C3701      C3702   1.414       .  A
C3701     Br3709   1.929       .  S
C3702     Br3713   1.929       .  S
C3703      C3704   1.410       .  A
C3703      C3708   1.413       .  A
C3704      C3705   1.404       .  A
C3704     Br3715   1.933       .  S
C3705      C3706   1.412       .  A
C3705     Br3711   1.932       .  S
C3706      C3707   1.411       .  A
C3707      C3708   1.413       .  A
C3707     Br3716   1.927       .  S
C3708     Br3712   1.928       .  S
C3717      C3718   1.412       .  A
C3717      C3722   1.412       .  A
C3718      C3719   1.408       .  A
C3718     Br3730   1.931       .  S
C3719      C3720   1.409       .  A
C3719     Br3734   1.930       .  S
C3720      C3723   1.483   1_554  S
C3720      C3721   1.407       .  A
C3721      C3722   1.406       .  A
C3721     Br3729   1.931       .  S
C3722     Br3733   1.927       .  S
C3723      C3724   1.403       .  A
C3723      C3728   1.408       .  A
C3724      C3725   1.404       .  A
C3724     Br3735   1.936       .  S
C3725      C3726   1.422       .  A
C3725     Br3731   1.932       .  S
C3726      C3727   1.417       .  A
C3727      C3728   1.411       .  A
C3727     Br3736   1.930       .  S
C3728     Br3732   1.929       .  S
C3737      C3738   1.424       .  A
C3737      C3742   1.423       .  A
C3738      C3739   1.410       .  A
C3738     Br3750   1.936       .  S
C3739      C3740   1.406       .  A
C3739     Br3754   1.934       .  S
C3740      C3743   1.493   1_565  S
C3740      C3741   1.407       .  A
C3741      C3742   1.414       .  A
C3741     Br3749   1.931       .  S
C3742     Br3753   1.931       .  S
C3743      C3744   1.410       .  A
C3743      C3748   1.410       .  A
C3744      C3745   1.411       .  A
C3744     Br3755   1.929       .  S
C3745      C3746   1.413       .  A
C3745     Br3751   1.929       .  S
C3746      C3747   1.411       .  A
C3747      C3748   1.410       .  A
C3747     Br3756   1.923       .  S
C3748     Br3752   1.929       .  S
C3757      C3758   1.410       .  A
C3757      C3762   1.410       .  A
C3758      C3759   1.411       .  A
C3758     Br3770   1.928       .  S
C3759      C3760   1.412       .  A
C3759     Br3774   1.928       .  S
C3760      C3763   1.489       .  S
C3760      C3761   1.409       .  A
C3761      C3762   1.406       .  A
C3761     Br3769   1.932       .  S
C3762     Br3773   1.929       .  S
C3763      C3764   1.409       .  A
C3763      C3768   1.406       .  A
C3764      C3765   1.415       .  A
C3764     Br3775   1.928       .  S
C3765      C3766   1.419       .  A
C3765     Br3771   1.930       .  S
C3766      C3767   1.421       .  A
C3767      C3768   1.403       .  A
C3767     Br3776   1.933       .  S
C3768     Br3772   1.938       .  S
C3777      C3778   1.407       .  A
C3777      C3782   1.407       .  A
C3778      C3779   1.407       .  A
C3778     Br3790   1.931       .  S
C3779      C3780   1.411       .  A
C3779     Br3794   1.929       .  S
C3780      C3783   1.488       .  S
C3780      C3781   1.411       .  A
C3781      C3782   1.410       .  A
C3781     Br3789   1.925       .  S
C3782     Br3793   1.928       .  S
C3783      C3784   1.409       .  A
C3783      C3788   1.411       .  A
C3784      C3785   1.404       .  A
C3784     Br3795   1.935       .  S
C3785      C3786   1.413       .  A
C3785     Br3791   1.933       .  S
C3786      C3787   1.412       .  A
C3787      C3788   1.415       .  A
C3787     Br3796   1.926       .  S
C3788     Br3792   1.926       .  S
C3797      C3798   1.412       .  A
C3797      C3802   1.409       .  A
C3798      C3799   1.401       .  A
C3798     Br3810   1.933       .  S
C3799      C3800   1.408       .  A
C3799     Br3814   1.934       .  S
C3800      C3803   1.476       .  S
C3800      C3801   1.407       .  A
C3801      C3802   1.406       .  A
C3801     Br3809   1.928       .  S
C3802     Br3813   1.924       .  S
C3803      C3804   1.408       .  A
C3803      C3808   1.407       .  A
C3804      C3805   1.404       .  A
C3804     Br3815   1.932       .  S
C3805      C3806   1.410       .  A
C3805     Br3811   1.931       .  S
C3806      C3807   1.414       .  A
C3807      C3808   1.405       .  A
C3807     Br3816   1.933       .  S
C3808     Br3812   1.931       .  S
C3817      C3818   1.410       .  A
C3817      C3822   1.413       .  A
C3818      C3819   1.408       .  A
C3818     Br3830   1.929       .  S
C3819      C3820   1.411       .  A
C3819     Br3834   1.930       .  S
C3820      C3823   1.491   1_554  S
C3820      C3821   1.412       .  A
C3821      C3822   1.409       .  A
C3821     Br3829   1.931       .  S
C3822     Br3833   1.932       .  S
C3823      C3824   1.411       .  A
C3823      C3828   1.413       .  A
C3824      C3825   1.406       .  A
C3824     Br3835   1.933       .  S
C3825      C3826   1.412       .  A
C3825     Br3831   1.933       .  S
C3826      C3827   1.412       .  A
C3827      C3828   1.412       .  A
C3827     Br3836   1.930       .  S
C3828     Br3832   1.930       .  S
C3837      C3838   1.414       .  A
C3837      C3842   1.413       .  A
C3838      C3839   1.408       .  A
C3838     Br3850   1.932       .  S
C3839      C3840   1.409       .  A
C3839     Br3854   1.931       .  S
C3840      C3843   1.488   1_455  S
C3840      C3841   1.409       .  A
C3841      C3842   1.410       .  A
C3841     Br3849   1.929       .  S
C3842     Br3853   1.929       .  S
C3843      C3844   1.408       .  A
C3843      C3848   1.411       .  A
C3844      C3845   1.406       .  A
C3844     Br3855   1.931       .  S
C3845      C3846   1.413       .  A
C3845     Br3851   1.930       .  S
C3846      C3847   1.410       .  A
C3847      C3848   1.410       .  A
C3847     Br3856   1.928       .  S
C3848     Br3852   1.928       .  S
C3857      C3858   1.411       .  A
C3857      C3862   1.414       .  A
C3858      C3859   1.405       .  A
C3858     Br3870   1.932       .  S
C3859      C3860   1.410       .  A
C3859     Br3874   1.932       .  S
C3860      C3863   1.480       .  S
C3860      C3861   1.408       .  A
C3861      C3862   1.406       .  A
C3861     Br3869   1.930       .  S
C3862     Br3873   1.933       .  S
C3863      C3864   1.410       .  A
C3863      C3868   1.411       .  A
C3864      C3865   1.400       .  A
C3864     Br3875   1.934       .  S
C3865      C3866   1.409       .  A
C3865     Br3871   1.932       .  S
C3866      C3867   1.407       .  A
C3867      C3868   1.410       .  A
C3867     Br3876   1.928       .  S
C3868     Br3872   1.927       .  S
C3877      C3878   1.412       .  A
C3877      C3882   1.414       .  A
C3878      C3879   1.413       .  A
C3878     Br3890   1.928       .  S
C3879      C3880   1.410       .  A
C3879     Br3894   1.926       .  S
C3880      C3883   1.484       .  S
C3880      C3881   1.408       .  A
C3881      C3882   1.401       .  A
C3881     Br3889   1.935       .  S
C3882     Br3893   1.936       .  S
C3883      C3884   1.408       .  A
C3883      C3888   1.407       .  A
C3884      C3885   1.409       .  A
C3884     Br3895   1.929       .  S
C3885      C3886   1.415       .  A
C3885     Br3891   1.931       .  S
C3886      C3887   1.414       .  A
C3887      C3888   1.407       .  A
C3887     Br3896   1.930       .  S
C3888     Br3892   1.930       .  S
C3897      C3898   1.410       .  A
C3897      C3902   1.410       .  A
C3898      C3899   1.404       .  A
C3898     Br3910   1.934       .  S
C3899      C3900   1.410       .  A
C3899     Br3914   1.933       .  S
C3900      C3903   1.487       .  S
C3900      C3901   1.411       .  A
C3901      C3902   1.412       .  A
C3901     Br3909   1.927       .  S
C3902     Br3913   1.929       .  S
C3903      C3904   1.409       .  A
C3903      C3908   1.410       .  A
C3904      C3905   1.405       .  A
C3904     Br3915   1.931       .  S
C3905      C3906   1.412       .  A
C3905     Br3911   1.933       .  S
C3906      C3907   1.409       .  A
C3907      C3908   1.411       .  A
C3907     Br3916   1.922       .  S
C3908     Br3912   1.927       .  S
C3917      C3918   1.419       .  A
C3917      C3922   1.417       .  A
C3918      C3919   1.416       .  A
C3918     Br3930   1.928       .  S
C3919      C3920   1.409       .  A
C3919     Br3934   1.928       .  S
C3920      C3923   1.493       .  S
C3920      C3921   1.408       .  A
C3921      C3922   1.407       .  A
C3921     Br3929   1.932       .  S
C3922     Br3933   1.933       .  S
C3923      C3924   1.410       .  A
C3923      C3928   1.407       .  A
C3924      C3925   1.415       .  A
C3924     Br3935   1.926       .  S
C3925      C3926   1.415       .  A
C3925     Br3931   1.928       .  S
C3926      C3927   1.417       .  A
C3927      C3928   1.406       .  A
C3927     Br3936   1.930       .  S
C3928     Br3932   1.933       .  S
