geometry optimzed in LAMMPS
_audit_creation_date              2020-11-30 
_audit_creation_method            'lammps2cif' 
_symmetry_space_group_name_H-M    'P1' 
_symmetry_Int_Tables_number       1 
_symmetry_cell_setting            triclinic 
loop_ 
_symmetry_equiv_pos_as_xyz 
  x,y,z 
_cell_length_a                    46.38865142 
_cell_length_b                    35.44730041319508 
_cell_length_c                    40.270545170670815 
_cell_angle_alpha                 89.94574045112837 
_cell_angle_beta                  89.92383805759991 
_cell_angle_gamma                 89.48001926334075 
loop_ 
_atom_site_label 
_atom_site_type_symbol 
_atom_site_fract_x 
_atom_site_fract_y 
_atom_site_fract_z 
_atom_site_charge 
C1          C  0.04432285  0.08649273  0.07753568     0.80000
N2          N  0.05447624  0.08973696  0.04571953    -0.78300
C3          C  0.04592457  0.06513353  0.02157329     0.82400
N4          N  0.02750490  0.03708889  0.02952994    -0.78300
C5          C  0.01789835  0.03256135  0.06106056     0.82500
N6          N  0.02657300  0.05702795  0.08522936    -0.80000
Zn7        Zn  0.99444735  0.41446965  0.07634351     1.49700
Zn8        Zn  0.93944499  0.46823148  0.06787030     1.49400
Zn9        Zn  0.93726986  0.38369818  0.04391915     1.49100
Zn10       Zn  0.93721778  0.39964171  0.11912935     1.49500
O11         O  0.95270711  0.41692314  0.07745127    -1.84400
O12         O  0.01038791  0.46912303  0.08009196    -0.75000
O13         O  0.90753251  0.46890278  0.03308178    -0.74800
O14         O  0.96564612  0.37678331  0.00571757    -0.74300
O15         O  0.97347819  0.50272686  0.05942627    -0.75000
O16         O  0.00595100  0.39810785  0.02897482    -0.74600
O17         O  0.90049984  0.40797847  0.02822996    -0.75200
O18         O  0.90860745  0.35789163  0.11128092    -0.74600
O19         O  0.91743497  0.48969981  0.10625205    -0.75400
O20         O  0.92308023  0.33446548  0.06286499    -0.74700
O21         O  0.91416244  0.44158104  0.14164668    -0.75200
O22         O  0.96948919  0.37609014  0.14630341    -0.75100
O23         O  0.00842516  0.37649188  0.11350675    -0.74900
C24         C  0.99981517  0.50004024  0.06848339     0.76900
C25         C  0.89134654  0.44161830  0.02477822     0.77400
C26         C  0.99228151  0.38520866  0.00385132     0.76300
C27         C  0.90711178  0.33300033  0.08861144     0.76700
C28         C  0.90757020  0.47512713  0.13267038     0.77800
C29         C  0.99541838  0.36570221  0.14005074     0.76900
C30         C  0.78525954  0.21109199  0.02047775     0.80000
N31         N  0.80066108  0.20335696  0.49329291    -0.78300
C32         C  0.82990126  0.20777800  0.49379129     0.82400
N33         N  0.84226813  0.22189101  0.52149202    -0.78300
C34         C  0.82717493  0.22931711  0.04909590     0.82500
N35         N  0.79814984  0.22567874  0.04791052    -0.80000
C36         C  0.00929658  0.33973780  0.16462652     0.80000
N37         N  0.02859079  0.31199709  0.15541822    -0.78300
C38         C  0.03783447  0.28589002  0.17835656     0.82400
N39         N  0.02710230  0.28729238  0.20976080    -0.78300
C40         C  0.00787567  0.31432904  0.21903718     0.82500
N41         N  0.99883011  0.34008187  0.19630683    -0.80000
Zn42       Zn  0.10129347  0.19791762  0.20154867     1.49700
Zn43       Zn  0.08258638  0.11669875  0.17406491     1.49400
Zn44       Zn  0.07997352  0.19043394  0.12585086     1.49100
Zn45       Zn  0.13716296  0.15356716  0.14605362     1.49500
O46         O  0.09906106  0.16541096  0.16269773    -1.84400
O47         O  0.07870001  0.17360223  0.23897926    -0.75000
O48         O  0.05997419  0.09784911  0.13320931    -0.74800
O49         O  0.05364446  0.23333963  0.14452609    -0.74300
O50         O  0.06045792  0.12012121  0.21913513    -0.75000
O51         O  0.07757024  0.24601110  0.19149079    -0.74600
O52         O  0.06157532  0.14656690  0.09769174    -0.75200
O53         O  0.14893859  0.18312032  0.10670219    -0.74600
O54         O  0.11661739  0.08084652  0.18163758    -0.75400
O55         O  0.11038745  0.21919204  0.09905566    -0.74700
O56         O  0.14581569  0.09864113  0.14113992    -0.75200
O57         O  0.16516524  0.17027692  0.17903984    -0.75100
O58         O  0.14426939  0.20497564  0.21742377    -0.74900
C59         C  0.06303393  0.14446922  0.24248333     0.76900
C60         C  0.05542772  0.11194475  0.10430276     0.77400
C61         C  0.05783680  0.25404876  0.17022899     0.76300
C62         C  0.13697223  0.21188595  0.09380770     0.76700
C63         C  0.14009137  0.07698823  0.16533542     0.77800
C64         C  0.16709892  0.18974561  0.20515553     0.76900
C65         C  0.27344780  0.46857785  0.24509687     0.80000
N66         N  0.25662422  0.44948517  0.26716973    -0.78300
C67         C  0.22622689  0.94096446  0.26590795     0.82400
N68         N  0.21329262  0.95963099  0.24081339    -0.78300
C69         C  0.22814248  0.98059443  0.21903406     0.82500
N70         N  0.25735842  0.98222515  0.22163478    -0.80000
C71         C  0.04611746  0.11434079  0.32899069     0.80000
N72         N  0.05679664  0.11432049  0.29732884    -0.78300
C73         C  0.04769134  0.14014672  0.27460289     0.82400
N74         N  0.02832484  0.16697655  0.28406781    -0.78300
C75         C  0.01749854  0.16809968  0.31551833     0.82500
N76         N  0.02665848  0.14180992  0.33825717    -0.80000
Zn77       Zn  0.97196572  0.26276801  0.36751913     1.49700
Zn78       Zn  0.95505673  0.25559768  0.29115488     1.49400
Zn79       Zn  0.91734308  0.30230796  0.34112390     1.49100
Zn80       Zn  0.97191421  0.33781713  0.31833204     1.49500
O81         O  0.95583152  0.28851384  0.32916654    -1.84400
O82         O  0.99879023  0.21843551  0.35070751    -0.75000
O83         O  0.91329566  0.24526260  0.27605707    -0.74800
O84         O  0.90149524  0.27202448  0.37716668    -0.74300
O85         O  0.97897950  0.20866996  0.30092147    -0.75000
O86         O  0.93853936  0.23764342  0.39375594    -0.74600
O87         O  0.89104217  0.29122727  0.30385917    -0.75200
O88         O  0.93865351  0.37632333  0.31221417    -0.74600
O89         O  0.97711724  0.28039298  0.25408335    -0.75400
O90         O  0.91272778  0.35582119  0.35407960    -0.74700
O91         O  0.99413826  0.33469809  0.27377472    -0.75200
O92         O  0.99500956  0.35485234  0.35918497    -0.75100
O93         O  0.99097466  0.30659262  0.39505426    -0.74900
C94         C  0.99693288  0.19938198  0.32362337     0.76900
C95         C  0.89068252  0.26486033  0.28254704     0.77400
C96         C  0.91158508  0.24554572  0.39475452     0.76300
C97         C  0.91709491  0.38009652  0.33171798     0.76700
C98         C  0.99227447  0.30996343  0.25070965     0.77800
C99         C  0.99849859  0.34070599  0.38824698     0.76900
C100        C  0.78913562  0.50551627  0.26305139     0.80000
N101        N  0.80674271  0.49016591  0.28650802    -0.78300
C102        C  0.83537166  0.48598572  0.28086105     0.82400
N103        N  0.84632520  0.49793461  0.25168299    -0.78300
C104        C  0.82938379  0.51405949  0.22813303     0.82500
N105        N  0.80041977  0.51743749  0.23354998    -0.80000
C106        C  0.00969171  0.36573765  0.41512715     0.80000
N107        N  0.02781422  0.39496136  0.40783479    -0.78300
C108        C  0.03632225  0.41933577  0.43216775     0.82400
N109        N  0.02593389  0.41498976  0.46348963    -0.78300
C110        C  0.00713390  0.38701050  0.47096558     0.82500
N111        N  0.99897704  0.36255325  0.44663088    -0.80000
Zn112      Zn  0.05924587  0.03714232  0.41664972     1.49700
Zn113      Zn  0.11579559  0.48474919  0.42220775     1.49400
Zn114      Zn  0.11843344  0.05720945  0.37681627     1.49100
Zn115      Zn  0.11451006  0.06720803  0.45049709     1.49500
O116        O  0.10083357  0.03522509  0.41589834    -1.84400
O117        O  0.04433044  0.48261071  0.41349121    -0.75000
O118        O  0.13384861  0.96445782  0.38275818    -0.74800
O119        O  0.08680325  0.08161623  0.34951743    -0.74300
O120        O  0.08207033  0.44955240  0.43327427    -0.75000
O121        O  0.04592408  0.07473429  0.37848449    -0.74600
O122        O  0.14108237  0.01604347  0.35210063    -0.75200
O123        O  0.12158034  0.11923893  0.43380749    -0.74600
O124        O  0.15201524  0.48499852  0.45245117    -0.75400
O125        O  0.14652852  0.09902046  0.39076878    -0.74700
O126        O  0.15339290  0.04676570  0.46312427    -0.75200
O127        O  0.08733922  0.07042225  0.48905346    -0.75100
O128        O  0.04656247  0.05428001  0.46385470    -0.74900
C129        C  0.05538433  0.45191528  0.42513410     0.76900
C130        C  0.14496859  0.98086449  0.35785814     0.77400
C131        C  0.05996705  0.08863059  0.35375713     0.76300
C132        C  0.14311245  0.12232948  0.41463681     0.76700
C133        C  0.16579819  0.51428267  0.46166765     0.77800
C134        C  0.06030846  0.06480998  0.48980314     0.76900
C135        C  0.26579278  0.25343294  0.48700916     0.80000
N136        N  0.24525498  0.26782418  0.00579669    -0.78300
C137        C  0.21629418  0.26435749  0.00179190     0.82400
N138        N  0.20668829  0.24412568  0.97577096    -0.78300
C139        C  0.22602785  0.22954999  0.45737226     0.82500
N140        N  0.25501472  0.23138042  0.46217135    -0.80000
C141        C  0.50624485  0.35024040  0.09261237     0.80000
N142        N  0.52526087  0.32192971  0.10114704    -0.78300
C143        C  0.53203353  0.29424123  0.07857206     0.82400
N144        N  0.51972981  0.29497556  0.04810765    -0.78300
C145        C  0.50128490  0.32292950  0.03914526     0.82500
N146        N  0.49419547  0.35010881  0.06160434    -0.80000
Zn147      Zn  0.61273282  0.23043238  0.08491265     1.49700
Zn148      Zn  0.61269187  0.14805913  0.05713982     1.47000
Zn149      Zn  0.61731294  0.15799967  0.13155989     1.49100
Zn150      Zn  0.55708618  0.17566113  0.09287898     1.49500
O151        O  0.59873125  0.17922339  0.09259335    -1.84400
O152        O  0.64768550  0.23115682  0.05285258    -0.75000
O153        O  0.62205029  0.09636018  0.07361097    -0.74800
O154        O  0.63938963  0.19905172  0.15594276    -0.74300
O155        O  0.65085531  0.16966326  0.04357177    -0.75000
O156        O  0.63190235  0.25055097  0.12527521    -0.74600
O157        O  0.64597437  0.11701913  0.11712896    -0.75200
O158        O  0.54594824  0.13753011  0.13233922    -0.74600
O159        O  0.58469079  0.14408066  0.01911761    -0.75400
O160        O  0.58744189  0.13301670  0.16041536    -0.74700
O161        O  0.54368536  0.15871174  0.04506212    -0.75200
O162        O  0.54154143  0.23114223  0.09682257    -0.75100
O163        O  0.57824421  0.26520004  0.07665835    -0.74900
C164        C  0.66208195  0.20221441  0.04326026     0.76900
C165        C  0.64335170  0.09373346  0.09321197     0.77400
C166        C  0.64308079  0.23412834  0.15017548     0.76300
C167        C  0.56088655  0.12470519  0.15704035     0.76700
C168        C  0.55744538  0.14878134  0.01869129     0.77800
C169        C  0.55188901  0.26234090  0.08579836     0.76900
C170        C  0.76620874  0.95963209  0.02298158     0.80000
N171        N  0.74638978  0.44225055  0.50589360    -0.78300
C172        C  0.71678134  0.94474862  0.51299538     0.82400
N173        N  0.70873923  0.96649116  0.53881118    -0.78300
C174        C  0.72752601  0.98689407  0.05292337     0.82500
N175        N  0.75630132  0.98326605  0.04734086    -0.80000
C176        C  0.54877701  0.09812297  0.18239033     0.80000
N177        N  0.56104541  0.09700354  0.21337512    -0.78300
C178        C  0.55388882  0.06959628  0.23562049     0.82400
N179        N  0.53525488  0.04243300  0.22631402    -0.78300
C180        C  0.52278989  0.04275900  0.19589493     0.82500
N181        N  0.52950827  0.07070330  0.17372549    -0.80000
Zn182      Zn  0.43994255  0.40085834  0.21686673     1.49700
Zn183      Zn  0.49698158  0.42647114  0.18202106     1.49400
Zn184      Zn  0.43764454  0.41350027  0.14148626     1.49100
Zn185      Zn  0.44262061  0.48426961  0.18967157     1.49500
O186        O  0.45517676  0.43204466  0.18183705    -1.84400
O187        O  0.46860690  0.39267928  0.25412141    -0.75000
O188        O  0.50852664  0.38805286  0.14335757    -0.74800
O189        O  0.40810046  0.37362706  0.15206178    -0.74300
O190        O  0.50963885  0.40897300  0.22947188    -0.75000
O191        O  0.42451524  0.35181838  0.20020449    -0.74600
O192        O  0.46806759  0.38792082  0.11320324    -0.75200
O193        O  0.41843247  0.50390164  0.15171055    -0.74600
O194        O  0.51425569  0.48040403  0.17854393    -0.75400
O195        O  0.41496095  0.45451213  0.11789486    -0.74700
O196        O  0.47759029  0.51778408  0.19458314    -0.75200
O197        O  0.41362338  0.48789162  0.22779017    -0.75100
O198        O  0.40462254  0.42724225  0.23354605    -0.74900
C199        C  0.49573766  0.39789805  0.25520475     0.76900
C200        C  0.49412402  0.37715025  0.11778082     0.77400
C201        C  0.40744252  0.34971596  0.17559951     0.76300
C202        C  0.40830372  0.48826994  0.12589304     0.76700
C203        C  0.50421152  0.51272566  0.18757394     0.77800
C204        C  0.39704975  0.46151584  0.23735642     0.76900
C205        C  0.28637110  0.21695798  0.24173554     0.80000
N206        N  0.30025187  0.23556382  0.21688493    -0.78300
C207        C  0.32922039  0.24061031  0.21830889     0.82400
N208        N  0.34405336  0.22693770  0.24459867    -0.78300
C209        C  0.33079385  0.20795209  0.26937709     0.82500
N210        N  0.30171214  0.20299057  0.26796981    -0.80000
C211        C  0.54364320  0.12231541  0.43021850     0.80000
N212        N  0.55333615  0.12046260  0.46226392    -0.78300
C213        C  0.54381877  0.14566486  0.48561167     0.82400
N214        N  0.52456887  0.17285529  0.47651945    -0.78300
C215        C  0.51536883  0.17609030  0.44451863     0.82500
N216        N  0.52537431  0.15113921  0.42124742    -0.80000
Zn217      Zn  0.45144683  0.26312782  0.46579119     1.49700
Zn218      Zn  0.46844673  0.34486932  0.43794593     1.49400
Zn219      Zn  0.47090545  0.26891217  0.39004717     1.49100
Zn220      Zn  0.41520542  0.30786714  0.41321390     1.49500
O221        O  0.45326333  0.29524820  0.42726033    -1.84400
O222        O  0.47183739  0.28905007  0.50322061    -0.75000
O223        O  0.49329004  0.36088020  0.39827115    -0.74800
O224        O  0.49795438  0.22654701  0.40902838    -0.74300
O225        O  0.48867378  0.34356638  0.48374604    -0.75000
O226        O  0.47630762  0.21653180  0.45786616    -0.74600
O227        O  0.49023506  0.31263530  0.36228284    -0.75200
O228        O  0.40129287  0.27522886  0.37804071    -0.74600
O229        O  0.43490372  0.38310454  0.44100712    -0.75400
O230        O  0.43876903  0.24000793  0.36444468    -0.74700
O231        O  0.40975532  0.36103212  0.39915167    -0.75200
O232        O  0.38774186  0.29707281  0.44963811    -0.75100
O233        O  0.40940835  0.25277548  0.47995948    -0.74900
C234        C  0.48634538  0.31907738  0.50698156     0.76900
C235        C  0.49773907  0.34667540  0.36942623     0.77400
C236        C  0.49525634  0.20761658  0.43609359     0.76300
C237        C  0.41169574  0.24696465  0.36304010     0.76700
C238        C  0.41386722  0.38625858  0.42074922     0.77800
C239        C  0.38691430  0.27194219  0.47214454     0.76900
C240        C  0.28852671  0.51422421  0.49023756     0.80000
N241        N  0.30522511  0.49862226  0.46602876    -0.78300
C242        C  0.33417437  0.49529595  0.46993774     0.82400
N243        N  0.34497733  0.50685031  0.00448928    -0.78300
C244        C  0.32888011  0.52295139  0.02891940     0.82500
N245        N  0.29960304  0.52494974  0.02536767    -0.80000
C246        C  0.51046265  0.37162868  0.34339276     0.80000
N247        N  0.52919577  0.39959376  0.35201788    -0.78300
C248        C  0.53960028  0.42379904  0.32854677     0.82400
N249        N  0.53023622  0.42079647  0.29661879    -0.78300
C250        C  0.51048301  0.39445740  0.28789123     0.82500
N251        N  0.50064729  0.36997032  0.31145695    -0.80000
Zn252      Zn  0.63837710  0.04858505  0.36896065     1.49700
Zn253      Zn  0.60424057  0.00827004  0.30983675     1.49400
Zn254      Zn  0.57984574  0.01556609  0.38555895     1.49100
Zn255      Zn  0.58657150  0.08919110  0.33721088     1.49500
O256        O  0.60104937  0.03939181  0.34974063    -1.84400
O257        O  0.66655570  0.03042479  0.33710524    -0.75000
O258        O  0.57991343  0.46260259  0.31687878    -0.74800
O259        O  0.60794467  0.98565611  0.41619989    -0.74300
O260        O  0.64839029  0.50069049  0.29619598    -0.75000
O261        O  0.64796069  0.01814319  0.40866826    -0.74600
O262        O  0.55502798  0.47493520  0.36353062    -0.75200
O263        O  0.56273182  0.10988075  0.37626615    -0.74600
O264        O  0.58398333  0.03465881  0.27158364    -0.75400
O265        O  0.56040300  0.06099140  0.41157283    -0.74700
O266        O  0.56617772  0.08873050  0.29128566    -0.75200
O267        O  0.62172810  0.12187416  0.33116460    -0.75100
O268        O  0.64908377  0.10297479  0.37316792    -0.74900
C269        C  0.67050163  0.51440217  0.31069878     0.76900
C270        C  0.55947139  0.45504995  0.33725989     0.77400
C271        C  0.63459453  0.99119954  0.42229831     0.76300
C272        C  0.55579210  0.09606001  0.40455671     0.76700
C273        C  0.56916766  0.06479915  0.26769632     0.77800
C274        C  0.64464263  0.12450085  0.34841908     0.76900
C275        C  0.76930738  0.24685982  0.26603410     0.80000
N276        N  0.75234484  0.26505112  0.24332661    -0.78300
C277        C  0.72313512  0.26390583  0.24551824     0.82400
N278        N  0.71116610  0.24294772  0.26980396    -0.78300
C279        C  0.72734233  0.22391927  0.29209417     0.82500
N280        N  0.75656275  0.22565677  0.29020830    -0.80000
C281        C  0.68046990  0.17700972  0.35636040    -0.02100
C282        C  0.66817778  0.14872025  0.33634322     0.07600
C283        C  0.67954417  0.14166878  0.30435747    -0.02200
C284        C  0.70231053  0.16340312  0.29220523    -0.02200
C285        C  0.71253250  0.19414467  0.31072084     0.07700
C286        C  0.70195164  0.20066225  0.34302344    -0.02400
Br287      Br  0.71556654  0.24337602  0.36780092    -0.01000
Br288      Br  0.66670229  0.18484527  0.40102012    -0.01000
Br289      Br  0.71850218  0.15259208  0.24889536    -0.01000
Br290      Br  0.66402893  0.10232183  0.27652879    -0.01000
C291        C  0.36250278  0.40894581  0.42472600    -0.02100
C292        C  0.39236265  0.41722179  0.42439197     0.07600
C293        C  0.40127729  0.45436502  0.43074886    -0.02200
C294        C  0.38103897  0.48170789  0.44119418    -0.02200
C295        C  0.35212603  0.47155108  0.44741237     0.07700
C296        C  0.34255657  0.43559060  0.43717727    -0.02400
Br297      Br  0.30287432  0.42035798  0.44290715    -0.01000
Br298      Br  0.34832782  0.36030614  0.41055624    -0.01000
Br299      Br  0.39289957  0.53334059  0.44629988    -0.01000
Br300      Br  0.44114661  0.46798078  0.42467084    -0.01000
C301        C  0.39885307  0.20108555  0.31650299    -0.02100
C302        C  0.39076574  0.22297617  0.34438192     0.07600
C303        C  0.36097745  0.22418637  0.35331265    -0.02200
C304        C  0.33979821  0.21295071  0.33044900    -0.02200
C305        C  0.34830817  0.19909142  0.29925220     0.07700
C306        C  0.37735163  0.18815353  0.29466870    -0.02400
Br307      Br  0.38709878  0.15558416  0.25802337    -0.01000
Br308      Br  0.43868908  0.18988179  0.30660645    -0.01000
Br309      Br  0.29943557  0.21850769  0.34151804    -0.01000
Br310      Br  0.34831654  0.24089990  0.39673660    -0.01000
C311        C  0.37233141  0.54583854  0.05837766    -0.02100
C312        C  0.34400387  0.53172897  0.06050330     0.07600
C313        C  0.33556672  0.51380922  0.09013682    -0.02200
C314        C  0.35677121  0.50169615  0.11285006    -0.02200
C315        C  0.38616462  0.50832647  0.10627416     0.07700
C316        C  0.39376934  0.53284021  0.08040164    -0.02400
Br317      Br  0.43349564  0.54643732  0.07400711    -0.01000
Br318      Br  0.38113266  0.58346131  0.02560324    -0.01000
Br319      Br  0.34572579  0.47450380  0.15214868    -0.01000
Br320      Br  0.29548638  0.50569087  0.09982547    -0.01000
C321        C  0.39170137  0.28272842  0.17269001    -0.02100
C322        C  0.38472551  0.32108450  0.17637359     0.07600
C323        C  0.35655286  0.33195960  0.18557956    -0.02200
C324        C  0.33616915  0.30454549  0.19418626    -0.02200
C325        C  0.34452962  0.26622397  0.19542922     0.07700
C326        C  0.37171498  0.25522970  0.18251428    -0.02400
Br327      Br  0.38204338  0.20261855  0.17944994    -0.01000
Br328      Br  0.42904468  0.26840177  0.15544878    -0.01000
Br329      Br  0.29796669  0.32038878  0.20765592    -0.01000
Br330      Br  0.34693792  0.38455985  0.19070775    -0.01000
C331        C  0.69923438  0.93640177  0.45394407    -0.02100
C332        C  0.69344514  0.93625012  0.48836032     0.07600
C333        C  0.66428577  0.94132949  0.49863009    -0.02200
C334        C  0.64399334  0.95806932  0.47695952    -0.02200
C335        C  0.65179166  0.96540129  0.44384858     0.07700
C336        C  0.67834721  0.95088682  0.43178025    -0.02400
Br337      Br  0.68644186  0.95187300  0.38474150    -0.01000
Br338      Br  0.73539323  0.91749576  0.43667683    -0.01000
Br339      Br  0.60802018  0.47519161  0.49350031    -0.01000
Br340      Br  0.65335843  0.42659931  0.54189497    -0.01000
C341        C  0.69128912  0.26178799  0.16138450    -0.02100
C342        C  0.66259834  0.25568229  0.17155695     0.07600
C343        C  0.65341979  0.26877099  0.20268453    -0.02200
C344        C  0.67400976  0.28093546  0.22576659    -0.02200
C345        C  0.70373584  0.27706673  0.21840781     0.07700
C346        C  0.71202533  0.27286791  0.18484820    -0.02400
Br347      Br  0.75115892  0.28159657  0.17067046    -0.01000
Br348      Br  0.70238507  0.25334011  0.11583771    -0.01000
Br349      Br  0.66183101  0.30114712  0.26803512    -0.01000
Br350      Br  0.61298806  0.26904787  0.21364614    -0.01000
C351        C  0.67889518  0.06776130  0.05241425    -0.02100
C352        C  0.66725809  0.06728982  0.08496342     0.07600
C353        C  0.68031803  0.04404193  0.10934048    -0.02200
C354        C  0.70312520  0.01935769  0.10032465    -0.02200
C355        C  0.71482288  0.02079235  0.06810029     0.07700
C356        C  0.70413100  0.04748536  0.04526492    -0.02400
Br357      Br  0.72184837  0.05208248  0.00185102    -0.01000
Br358      Br  0.65969985  0.09281180  0.01581598    -0.01000
Br359      Br  0.71695232  0.98153897  0.13083139    -0.01000
Br360      Br  0.66487750  0.04256621  0.15377399    -0.01000
C361        C  0.34599831  0.22858437  0.48689726    -0.02100
C362        C  0.35822660  0.26489986  0.48732161     0.07600
C363        C  0.34049179  0.29623875  0.49504417    -0.02200
C364        C  0.31031155  0.29249275  0.49640751    -0.02200
C365        C  0.29761850  0.25675974  0.49163784     0.07700
C366        C  0.31580698  0.22450794  0.48973764    -0.02400
Br367      Br  0.29840071  0.17303115  0.98517706    -0.01000
Br368      Br  0.36893729  0.18427070  0.97720888    -0.01000
Br369      Br  0.28688428  0.33732340  0.50213071    -0.01000
Br370      Br  0.35788539  0.34474548  0.50314428    -0.01000
C371        C  0.17690858  0.14911539  0.45665732    -0.02100
C372        C  0.16633890  0.14914788  0.42361906     0.07600
C373        C  0.17970652  0.17251139  0.39968877    -0.02200
C374        C  0.20206293  0.19716588  0.40934427    -0.02200
C375        C  0.21248769  0.19638243  0.44216369     0.07700
C376        C  0.20117899  0.17023012  0.46490744    -0.02400
Br377      Br  0.21541036  0.16308972  0.00711809    -0.01000
Br378      Br  0.15770368  0.12296198  0.49244820    -0.01000
Br379      Br  0.21763875  0.23312377  0.37845342    -0.01000
Br380      Br  0.16526288  0.17403083  0.35484500    -0.01000
C381        C  0.24513619  0.03910311  0.46301811    -0.02100
C382        C  0.25685846  0.51531964  0.48551014     0.07600
C383        C  0.23881581  0.48826771  0.50059036    -0.02200
C384        C  0.20896934  0.48746728  0.49319071    -0.02200
C385        C  0.19725684  0.51271180  0.46958816     0.07700
C386        C  0.21578835  0.03760900  0.45468745    -0.02400
Br387      Br  0.20313373  0.06581316  0.41653244    -0.01000
Br388      Br  0.26955843  0.06781875  0.94324187    -0.01000
Br389      Br  0.18440431  0.45158525  0.51501982    -0.01000
Br390      Br  0.25528493  0.45078573  0.52971881    -0.01000
C391        C  0.75104457  0.53497476  0.29731417    -0.02100
C392        C  0.75824497  0.51045380  0.27132915     0.07600
C393        C  0.73698246  0.48694323  0.25772014    -0.02200
C394        C  0.70834239  0.48802137  0.27000834    -0.02200
C395        C  0.70081882  0.51221092  0.29690361     0.07700
C396        C  0.72210270  0.03438181  0.30948845    -0.02400
Br397      Br  0.71685259  0.06791145  0.34728544    -0.01000
Br398      Br  0.77957076  0.06692051  0.31322628    -0.01000
Br399      Br  0.68068513  0.45398784  0.25074703    -0.01000
Br400      Br  0.74768597  0.45134515  0.22360410    -0.01000
C401        C  0.90356543  0.44755933  0.31954683    -0.02100
C402        C  0.89521248  0.41028264  0.32645912     0.07600
C403        C  0.86548365  0.40112758  0.32606633    -0.02200
C404        C  0.84508453  0.42724175  0.31389128    -0.02200
C405        C  0.85408627  0.46317701  0.30311073     0.07700
C406        C  0.88292891  0.47412390  0.30856336    -0.02400
Br407      Br  0.89407687  0.52583152  0.30191954    -0.01000
Br408      Br  0.94308321  0.46252950  0.32597233    -0.01000
Br409      Br  0.80537348  0.41157552  0.30945163    -0.01000
Br410      Br  0.85195658  0.35198812  0.33972809    -0.01000
C411        C  0.84941970  0.22108353  0.27285158    -0.02100
C412        C  0.86222727  0.25651499  0.26766884     0.07600
C413        C  0.84502028  0.28695720  0.25659848    -0.02200
C414        C  0.81479574  0.28390028  0.25564984    -0.02200
C415        C  0.80144094  0.24922243  0.26372908     0.07700
C416        C  0.81920480  0.21723958  0.27036866    -0.02400
Br417      Br  0.80276525  0.16774511  0.27615284    -0.01000
Br418      Br  0.87290244  0.17845118  0.28631876    -0.01000
Br419      Br  0.79242108  0.32913190  0.24690637    -0.01000
Br420      Br  0.86323046  0.33360181  0.24369596    -0.01000
C421        C  0.35151651  0.50221167  0.23914532    -0.02100
C422        C  0.36700475  0.46957337  0.24947129     0.07600
C423        C  0.35011617  0.93643306  0.26535709    -0.02200
C424        C  0.31980789  0.93450985  0.26372152    -0.02200
C425        C  0.30554579  0.47031474  0.24993867     0.07700
C426        C  0.32106979  0.50305148  0.24077499    -0.02400
Br427      Br  0.30120574  0.55016694  0.23173341    -0.01000
Br428      Br  0.37096325  0.54584589  0.22125822    -0.01000
Br429      Br  0.30205086  0.88793203  0.27774554    -0.01000
Br430      Br  0.37114262  0.89906082  0.29107177    -0.01000
C431        C  0.17746627  0.92601366  0.28637294    -0.02100
C432        C  0.20713205  0.92979974  0.29382733     0.07600
C433        C  0.21492182  0.93894305  0.32670340    -0.02200
C434        C  0.19376460  0.95323439  0.34847359    -0.02200
C435        C  0.16527127  0.95903091  0.33720785     0.07700
C436        C  0.15671516  0.94341855  0.30683340    -0.02400
Br437      Br  0.11731840  0.94826361  0.29230836    -0.01000
Br438      Br  0.16586753  0.90062986  0.24621502    -0.01000
Br439      Br  0.20428353  0.96700576  0.39302099    -0.01000
Br440      Br  0.25423215  0.93413858  0.34197822    -0.01000
C441        C  0.18344502  0.24610519  0.08461390    -0.02100
C442        C  0.15525378  0.23741206  0.07359437     0.07600
C443        C  0.14574005  0.25200626  0.04293582    -0.02200
C444        C  0.16551138  0.26993555  0.02168412    -0.02200
C445        C  0.19529099  0.27024158  0.02954637     0.07700
C446        C  0.20347535  0.26249954  0.06268110    -0.02400
Br447      Br  0.24192824  0.27291232  0.07849030    -0.01000
Br448      Br  0.19501391  0.23541795  0.12981220    -0.01000
Br449      Br  0.15216808  0.29197702  0.98055150    -0.01000
Br450      Br  0.10676092  0.24394193  0.02804193    -0.01000
C451        C  0.17275212  0.05668206  0.21089326    -0.02100
C452        C  0.16312106  0.05159573  0.17792976     0.07600
C453        C  0.17833315  0.02658855  0.15669143    -0.02200
C454        C  0.20180624  0.00509382  0.16905153    -0.02200
C455        C  0.21093635  0.00986776  0.20204648     0.07700
C456        C  0.19696927  0.03672031  0.22247077    -0.02400
Br457      Br  0.21069693  0.04535362  0.26720672    -0.01000
Br458      Br  0.15428679  0.09306310  0.24006582    -0.01000
Br459      Br  0.22080944  0.96797804  0.14160888    -0.01000
Br460      Br  0.16616924  0.02022625  0.11130998    -0.01000
C461        C  0.21992271  0.16938144  0.20939283    -0.02100
C462        C  0.19701505  0.19431954  0.21961490     0.07600
C463        C  0.20412028  0.22457289  0.24127642    -0.02200
C464        C  0.23332558  0.23160118  0.24955782    -0.02200
C465        C  0.25550963  0.20783535  0.23759345     0.07700
C466        C  0.24859966  0.17612910  0.21877508    -0.02400
Br467      Br  0.27945749  0.14234741  0.20497789    -0.01000
Br468      Br  0.21423693  0.12540073  0.18176107    -0.01000
Br469      Br  0.24333960  0.27447417  0.27652368    -0.01000
Br470      Br  0.17475796  0.25763182  0.25934849    -0.01000
C471        C  0.74242445  0.17967513  0.04371926    -0.02100
C472        C  0.75357145  0.20599128  0.02121162     0.07600
C473        C  0.73454704  0.23128446  0.00489553    -0.02200
C474        C  0.70448445  0.23029971  0.01148699    -0.02200
C475        C  0.69347281  0.20463652  0.03506081     0.07700
C476        C  0.71301359  0.18031836  0.05186119    -0.02400
Br477      Br  0.70119837  0.15251491  0.09045443    -0.01000
Br478      Br  0.76792835  0.14282217  0.06401020    -0.01000
Br479      Br  0.67865554  0.26471113  0.98910702    -0.01000
Br480      Br  0.74983226  0.26803255  0.97451663    -0.01000
C481        C  0.84015295  0.21360425  0.43188697    -0.02100
C482        C  0.84898906  0.20282971  0.46405938     0.07600
C483        C  0.87867929  0.19554230  0.46942369    -0.02200
C484        C  0.89956249  0.20895470  0.44709576    -0.02200
C485        C  0.89084954  0.22486378  0.41655623     0.07700
C486        C  0.86107924  0.22326742  0.40786549    -0.02400
Br487      Br  0.84826315  0.23381973  0.36305288    -0.01000
Br488      Br  0.79980045  0.21601427  0.42015693    -0.01000
Br489      Br  0.93943959  0.20861420  0.46090765    -0.01000
Br490      Br  0.89088186  0.16583269  0.50700741    -0.01000
C491        C  0.89300011  0.52232485  0.17607621    -0.02100
C492        C  0.88549717  0.49619901  0.15149225     0.07600
C493        C  0.85612644  0.48974319  0.14481352    -0.02200
C494        C  0.83495121  0.50185300  0.16753493    -0.02200
C495        C  0.84330004  0.52215705  0.19588094     0.07700
C496        C  0.87136166  0.53710392  0.19693935    -0.02400
Br497      Br  0.87968518  0.57676816  0.22790597    -0.01000
Br498      Br  0.93266589  0.53601674  0.18227282    -0.01000
Br499      Br  0.79531619  0.48854557  0.16065427    -0.01000
Br500      Br  0.84506291  0.46423891  0.10478597    -0.01000
C501        C  0.85516680  0.31550454  0.08833521    -0.02100
C502        C  0.88439027  0.30415634  0.09037781     0.07600
C503        C  0.89134342  0.26545760  0.09065387    -0.02200
C504        C  0.86950192  0.23891824  0.08524600    -0.02200
C505        C  0.84184547  0.25108477  0.07531349     0.07700
C506        C  0.83385618  0.28901660  0.08044493    -0.02400
Br507      Br  0.79447742  0.30547981  0.07405440    -0.01000
Br508      Br  0.84451832  0.36778484  0.09234722    -0.01000
Br509      Br  0.87663375  0.18591720  0.09186748    -0.01000
Br510      Br  0.93066194  0.24894877  0.09665934    -0.01000
C511        C  0.81134711  0.42185338  0.01063302    -0.02100
C512        C  0.79880777  0.45765175  0.01677414     0.07600
C513        C  0.81618773  0.98744272  0.01797915    -0.02200
C514        C  0.84654379  0.98317850  0.01716831    -0.02200
C515        C  0.86021627  0.44843709  0.01498010     0.07700
C516        C  0.84162914  0.41739078  0.00871459    -0.02400
Br517      Br  0.85654902  0.36788952  0.99680570    -0.01000
Br518      Br  0.78739890  0.37759921  0.00735098    -0.01000
Br519      Br  0.86948630  0.02859330  0.01862861    -0.01000
Br520      Br  0.79971079  0.03775931  0.01957624    -0.01000
C521        C  0.04290960  0.08944833  0.57763335     0.80000
N522        N  0.05349256  0.09198954  0.54602338    -0.78300
C523        C  0.04538405  0.06683351  0.52219417     0.82400
N524        N  0.02696066  0.03881706  0.53020612    -0.78300
C525        C  0.01687754  0.03489043  0.56160429     0.82500
N526        N  0.02513622  0.05999177  0.58553124    -0.80000
Zn527      Zn  0.99365482  0.41673031  0.57648644     1.49700
Zn528      Zn  0.93822251  0.46963000  0.56742470     1.49400
Zn529      Zn  0.93696362  0.38494547  0.54336917     1.49100
Zn530      Zn  0.93624635  0.40100959  0.61852379     1.49500
O531        O  0.95190279  0.41852989  0.57703655    -1.84400
O532        O  0.00905632  0.47175117  0.58042743    -0.75000
O533        O  0.90658083  0.46944862  0.53228556    -0.74800
O534        O  0.96575561  0.37892710  0.50534059    -0.74300
O535        O  0.97207589  0.50463078  0.55904292    -0.75000
O536        O  0.00570886  0.40082982  0.52900572    -0.74600
O537        O  0.89981165  0.40838616  0.52747270    -0.75200
O538        O  0.90810798  0.35890563  0.61033774    -0.74600
O539        O  0.91581053  0.49087348  0.60581635    -0.75400
O540        O  0.92335884  0.33529530  0.56230752    -0.74700
O541        O  0.91299504  0.44249868  0.64098936    -0.75200
O542        O  0.96807464  0.37787059  0.64627716    -0.75100
O543        O  0.00730785  0.37860077  0.61398293    -0.74900
C544        C  0.99835797  0.50242607  0.56843598     0.76900
C545        C  0.89055419  0.44199981  0.52394057     0.77400
C546        C  0.99233519  0.38788466  0.50369159     0.76300
C547        C  0.90708364  0.33380363  0.58780779     0.76700
C548        C  0.90614077  0.47600177  0.63222325     0.77800
C549        C  0.99404381  0.36758945  0.64032898     0.76900
C550        C  0.78458704  0.21262140  0.52065001     0.80000
N551        N  0.80172059  0.20004466  0.99394858    -0.78300
C552        C  0.83103407  0.20353318  0.99507683     0.82400
N553        N  0.84308835  0.21856121  0.02259657    -0.78300
C554        C  0.82673464  0.23083834  0.54878269     0.82500
N555        N  0.79777235  0.22636792  0.54823981    -0.80000
C556        C  0.00750156  0.34111368  0.66481626     0.80000
N557        N  0.02698852  0.31372159  0.65541625    -0.78300
C558        C  0.03577100  0.28689514  0.67789037     0.82400
N559        N  0.02449859  0.28728387  0.70906359    -0.78300
C560        C  0.00508044  0.31393255  0.71860966     0.82500
N561        N  0.99643597  0.34046866  0.69629891    -0.80000
Zn562      Zn  0.09961076  0.20052902  0.70186167     1.49700
Zn563      Zn  0.08142378  0.11972676  0.67305765     1.49400
Zn564      Zn  0.08054774  0.19309625  0.62511063     1.49100
Zn565      Zn  0.13854502  0.15765687  0.64849473     1.49500
O566        O  0.09922830  0.16819096  0.66264136    -1.84400
O567        O  0.07767024  0.17493837  0.73899265    -0.75000
O568        O  0.05763637  0.10173601  0.63330140    -0.74800
O569        O  0.05361673  0.23601861  0.64322329    -0.74300
O570        O  0.06023319  0.12136926  0.71856580    -0.75000
O571        O  0.07516890  0.24737378  0.69189105    -0.74600
O572        O  0.06172118  0.14921648  0.59694627    -0.75200
O573        O  0.15081227  0.18733830  0.60894842    -0.74600
O574        O  0.11373853  0.08165292  0.67843678    -0.75400
O575        O  0.11162489  0.22144496  0.59855640    -0.74700
O576        O  0.14858294  0.10272099  0.64570845    -0.75200
O577        O  0.16533583  0.17584094  0.68277439    -0.75100
O578        O  0.14128975  0.21064935  0.71916365    -0.74900
C579        C  0.06269087  0.14519380  0.74227527     0.76900
C580        C  0.05412579  0.11522350  0.60408331     0.77400
C581        C  0.05637522  0.25580649  0.66975015     0.76300
C582        C  0.13856891  0.21513306  0.59467100     0.76700
C583        C  0.13880239  0.07818106  0.66571787     0.77800
C584        C  0.16498656  0.19623818  0.70859137     0.76900
C585        C  0.26813657  0.45873114  0.74427118     0.80000
N586        N  0.25327551  0.43849402  0.76746418    -0.78300
C587        C  0.22396447  0.93452323  0.76635585     0.82400
N588        N  0.20967898  0.95229360  0.74176141    -0.78300
C589        C  0.22297391  0.97510967  0.72009908     0.82500
N590        N  0.25217945  0.97829498  0.72141053    -0.80000
C591        C  0.04615725  0.11265684  0.82827959     0.80000
N592        N  0.05692616  0.11352348  0.79664107    -0.78300
C593        C  0.04765250  0.13981387  0.77438139     0.82400
N594        N  0.02807127  0.16609648  0.78422783    -0.78300
C595        C  0.01718062  0.16638303  0.81559080     0.82500
N596        N  0.02644786  0.13968637  0.83793096    -0.80000
Zn597      Zn  0.97153385  0.26023555  0.86789809     1.49700
Zn598      Zn  0.95382829  0.25293310  0.79146868     1.49400
Zn599      Zn  0.91591433  0.29786556  0.84256955     1.49100
Zn600      Zn  0.96959634  0.33545745  0.81889466     1.49500
O601        O  0.95450617  0.28559115  0.82975078    -1.84400
O602        O  0.99849962  0.21648132  0.85085262    -0.75000
O603        O  0.91197334  0.24204945  0.77649443    -0.74800
O604        O  0.90109244  0.26654856  0.87839880    -0.74300
O605        O  0.97820120  0.20630161  0.80135864    -0.75000
O606        O  0.93916256  0.23411846  0.89496083    -0.74600
O607        O  0.88947400  0.28662699  0.80571625    -0.75200
O608        O  0.93553212  0.37287535  0.81425278    -0.74600
O609        O  0.97543710  0.27850234  0.75411083    -0.75400
O610        O  0.91005469  0.35095101  0.85599757    -0.74700
O611        O  0.99090345  0.33372454  0.77350174    -0.75200
O612        O  0.99328945  0.35283418  0.85929770    -0.75100
O613        O  0.99041923  0.30429976  0.89503689    -0.74900
C614        C  0.99641098  0.19727535  0.82390593     0.76900
C615        C  0.88921818  0.26105369  0.78369142     0.77400
C616        C  0.91203549  0.24074332  0.89607533     0.76300
C617        C  0.91403948  0.37573962  0.83397599     0.76700
C618        C  0.98960062  0.30890481  0.75043110     0.77800
C619        C  0.99742965  0.33856255  0.88822802     0.76900
C620        C  0.78692510  0.50168304  0.76389333     0.80000
N621        N  0.80396309  0.48562505  0.78755768    -0.78300
C622        C  0.83263256  0.48086664  0.78237385     0.82400
N623        N  0.84416822  0.49284904  0.75345551    -0.78300
C624        C  0.82773615  0.50961387  0.72976077     0.82500
N625        N  0.79879767  0.51372843  0.73477562    -0.80000
C626        C  0.00880121  0.36355463  0.91503907     0.80000
N627        N  0.02695799  0.39270725  0.90778518    -0.78300
C628        C  0.03585116  0.41665663  0.93229503     0.82400
N629        N  0.02578302  0.41192823  0.96367360    -0.78300
C630        C  0.00687792  0.38418633  0.97108253     0.82500
N631        N  0.99832119  0.36007330  0.94664715    -0.80000
Zn632      Zn  0.05863810  0.03463200  0.91569539     1.49700
Zn633      Zn  0.11550513  0.48118420  0.92459544     1.49400
Zn634      Zn  0.11774447  0.05166376  0.87464961     1.49100
Zn635      Zn  0.11398385  0.06508490  0.94814808     1.49500
O636        O  0.10014971  0.03171545  0.91470138    -1.84400
O637        O  0.04451151  0.47932767  0.91264278    -0.75000
O638        O  0.13297159  0.95922443  0.88424480    -0.74800
O639        O  0.08630893  0.07755556  0.84767623    -0.74300
O640        O  0.08129175  0.44705999  0.93559934    -0.75000
O641        O  0.04581630  0.07289012  0.87772915    -0.74600
O642        O  0.13889684  0.00853158  0.85045267    -0.75200
O643        O  0.12193104  0.11572772  0.92874688    -0.74600
O644        O  0.15120698  0.48259538  0.95591594    -0.75400
O645        O  0.14745105  0.09220593  0.88751207    -0.74700
O646        O  0.15223629  0.04400394  0.96220533    -0.75200
O647        O  0.08709446  0.07046055  0.98705374    -0.75100
O648        O  0.04643543  0.05161025  0.96327701    -0.74900
C649        C  0.05506447  0.44903493  0.92562399     0.76900
C650        C  0.14319860  0.97384006  0.85800287     0.77400
C651        C  0.05977467  0.08604591  0.85260785     0.76300
C652        C  0.14411503  0.11682352  0.91036869     0.76700
C653        C  0.16513111  0.51225608  0.96389460     0.77800
C654        C  0.06029031  0.06351253  0.98869742     0.76900
C655        C  0.26407075  0.25162035  0.98384006     0.80000
N656        N  0.24715613  0.27067949  0.50859668    -0.78300
C657        C  0.21814081  0.26868657  0.50402261     0.82400
N658        N  0.20833088  0.24893005  0.47785103    -0.78300
C659        C  0.22470480  0.22588874  0.95477329     0.82500
N660        N  0.25362513  0.22937566  0.95897907    -0.80000
C661        C  0.50637505  0.35047759  0.59217756     0.80000
N662        N  0.52504666  0.32191704  0.60107817    -0.78300
C663        C  0.53186073  0.29408854  0.57864268     0.82400
N664        N  0.51992449  0.29492692  0.54799359    -0.78300
C665        C  0.50184511  0.32313008  0.53867737     0.82500
N666        N  0.49473822  0.35046489  0.56095942    -0.80000
Zn667      Zn  0.61225496  0.22996683  0.58609136     1.49700
Zn668      Zn  0.61274165  0.14736998  0.55831265     1.47000
Zn669      Zn  0.61638455  0.15752024  0.63253391     1.49100
Zn670      Zn  0.55662352  0.17532136  0.59282698     1.49500
O671        O  0.59824454  0.17874292  0.59334984    -1.84400
O672        O  0.64725846  0.23075955  0.55430686    -0.75000
O673        O  0.62223039  0.09573148  0.57499379    -0.74800
O674        O  0.63800659  0.19824408  0.65738374    -0.74300
O675        O  0.65080191  0.16925309  0.54514351    -0.75000
O676        O  0.63111594  0.24985166  0.62670954    -0.74600
O677        O  0.64546422  0.11680284  0.61883782    -0.75200
O678        O  0.54499872  0.13743785  0.63222228    -0.74600
O679        O  0.58542922  0.14338092  0.51970163    -0.75400
O680        O  0.58621432  0.13283415  0.66085601    -0.74700
O681        O  0.54405219  0.15852430  0.54462162    -0.75200
O682        O  0.54097078  0.23077697  0.59663419    -0.75100
O683        O  0.57801074  0.26493029  0.57753975    -0.74900
C684        C  0.66180877  0.20192214  0.54479224     0.76900
C685        C  0.64324841  0.09332763  0.59502764     0.77400
C686        C  0.64189289  0.23327116  0.65175514     0.76300
C687        C  0.55966727  0.12473557  0.65718480     0.76700
C688        C  0.55824776  0.14846997  0.51858110     0.77800
C689        C  0.55152553  0.26206427  0.58609874     0.76900
C690        C  0.76558590  0.95910014  0.52559022     0.80000
N691        N  0.74753199  0.44403448  0.00241191    -0.78300
C692        C  0.71781685  0.94525080  0.00874224     0.82400
N693        N  0.70904138  0.96747561  0.03394267    -0.78300
C694        C  0.72767051  0.98599090  0.55711619     0.82500
N695        N  0.75629357  0.98257914  0.55038797    -0.80000
C696        C  0.54726670  0.09851751  0.68253815     0.80000
N697        N  0.55939805  0.09740543  0.71358567    -0.78300
C698        C  0.55198877  0.07016898  0.73586403     0.82400
N699        N  0.53325442  0.04314545  0.72652767    -0.78300
C700        C  0.52095708  0.04350784  0.69601745     0.82500
N701        N  0.52793974  0.07125380  0.67381428    -0.80000
Zn702      Zn  0.43784945  0.39996490  0.71490230     1.49700
Zn703      Zn  0.49498684  0.42647251  0.68153672     1.49400
Zn704      Zn  0.43699439  0.41368154  0.63900988     1.49100
Zn705      Zn  0.43966476  0.48382573  0.68740055     1.49500
O706        O  0.45317647  0.43185217  0.68023197    -1.84400
O707        O  0.46607868  0.39185787  0.75311901    -0.75000
O708        O  0.50767303  0.38816419  0.64314155    -0.74800
O709        O  0.40747238  0.37383125  0.64870213    -0.74300
O710        O  0.50717297  0.40922562  0.72930516    -0.75000
O711        O  0.42331894  0.35095256  0.69678674    -0.74600
O712        O  0.46795773  0.38819919  0.61177941    -0.75200
O713        O  0.41720652  0.50394270  0.64796442    -0.74600
O714        O  0.51157194  0.48060209  0.67847305    -0.75400
O715        O  0.41494071  0.45444299  0.61421413    -0.74700
O716        O  0.47440204  0.51735913  0.69435450    -0.75200
O717        O  0.40863843  0.48627500  0.72373344    -0.75100
O718        O  0.40169989  0.42527222  0.73097471    -0.74900
C719        C  0.49313510  0.39771257  0.75478920     0.76900
C720        C  0.49386308  0.37736493  0.61710043     0.77400
C721        C  0.40648990  0.34950181  0.67188482     0.76300
C722        C  0.40801846  0.48826316  0.62168658     0.76700
C723        C  0.50115698  0.51263265  0.68774106     0.77800
C724        C  0.39283806  0.45919617  0.73364909     0.76900
C725        C  0.28380273  0.22323195  0.74081727     0.80000
N726        N  0.29700051  0.24085407  0.71491473    -0.78300
C727        C  0.32618990  0.24428517  0.71444830     0.82400
N728        N  0.34183029  0.23036938  0.74006922    -0.78300
C729        C  0.32922490  0.21256811  0.76597989     0.82500
N730        N  0.30001103  0.20912407  0.76628485    -0.80000
C731        C  0.54126450  0.12132910  0.93105765     0.80000
N732        N  0.55148955  0.11995843  0.96288680    -0.78300
C733        C  0.54237049  0.14550193  0.98614665     0.82400
N734        N  0.52297235  0.17259219  0.97718507    -0.78300
C735        C  0.51323464  0.17539406  0.94535480     0.82500
N736        N  0.52286640  0.15007887  0.92216397    -0.80000
Zn737      Zn  0.44984688  0.26333238  0.96684985     1.49700
Zn738      Zn  0.46727556  0.34452628  0.93876918     1.49400
Zn739      Zn  0.46906018  0.26886217  0.89076266     1.49100
Zn740      Zn  0.41352006  0.30845057  0.91394566     1.49500
O741        O  0.45157449  0.29520951  0.92807646    -1.84400
O742        O  0.47033071  0.28930085  0.00433747    -0.75000
O743        O  0.49122875  0.36089213  0.89838613    -0.74800
O744        O  0.49566404  0.22571141  0.90966273    -0.74300
O745        O  0.48832087  0.34276622  0.98401557    -0.75000
O746        O  0.47459960  0.21653262  0.95897304    -0.74600
O747        O  0.48841379  0.31233920  0.86273771    -0.75200
O748        O  0.39947628  0.27728074  0.87752222    -0.74600
O749        O  0.43391631  0.38264751  0.94357522    -0.75400
O750        O  0.43681159  0.24142049  0.86447739    -0.74700
O751        O  0.40826911  0.36217435  0.90151965    -0.75200
O752        O  0.38594969  0.29672360  0.94990506    -0.75100
O753        O  0.40777991  0.25302833  0.98079011    -0.74900
C754        C  0.48551581  0.31883310  0.00761912     0.76900
C755        C  0.49561428  0.34655877  0.86956560     0.77400
C756        C  0.49318497  0.20708992  0.93694740     0.76300
C757        C  0.40993498  0.24927545  0.86214662     0.76700
C758        C  0.41260088  0.38652071  0.92382743     0.77800
C759        C  0.38518879  0.27173800  0.97250894     0.76900
C760        C  0.28712934  0.51205668  0.99686344     0.80000
N761        N  0.30391982  0.49680361  0.97258291    -0.78300
C762        C  0.33285958  0.49374482  0.97627660     0.82400
N763        N  0.34629821  0.50843061  0.49814560    -0.78300
C764        C  0.33023052  0.52487880  0.52236295     0.82500
N765        N  0.30102388  0.52714514  0.51864634    -0.80000
C766        C  0.50803594  0.37151150  0.84328711     0.80000
N767        N  0.52687068  0.39938856  0.85176642    -0.78300
C768        C  0.53715204  0.42363715  0.82829172     0.82400
N769        N  0.52758888  0.42073209  0.79641063    -0.78300
C770        C  0.50770117  0.39448050  0.78775253     0.82500
N771        N  0.49797999  0.36993125  0.81139330    -0.80000
Zn772      Zn  0.63644898  0.04986611  0.86843415     1.49700
Zn773      Zn  0.60275288  0.00898060  0.80975191     1.49400
Zn774      Zn  0.57864330  0.01531103  0.88563811     1.49100
Zn775      Zn  0.58364312  0.08927601  0.83781487     1.49500
O776        O  0.59914422  0.03980859  0.84971975    -1.84400
O777        O  0.66501307  0.03400167  0.83590135    -0.75000
O778        O  0.57752045  0.46243383  0.81662988    -0.74800
O779        O  0.60761926  0.98485784  0.91491231    -0.74300
O780        O  0.64597038  0.50108950  0.79628355    -0.75000
O781        O  0.64720376  0.01801590  0.90680655    -0.74600
O782        O  0.55289307  0.47443335  0.86353155    -0.75200
O783        O  0.55943234  0.10895539  0.87677847    -0.74600
O784        O  0.58262284  0.03563021  0.77151307    -0.75400
O785        O  0.55902569  0.06030158  0.91242450    -0.74700
O786        O  0.56351655  0.08869013  0.79183249    -0.75200
O787        O  0.61811417  0.12319276  0.83256478    -0.75100
O788        O  0.64507933  0.10443919  0.87493073    -0.74900
C789        C  0.66805096  0.51625215  0.80969989     0.76900
C790        C  0.55713880  0.45478605  0.83706104     0.77400
C791        C  0.63441143  0.99043857  0.92016860     0.76300
C792        C  0.55339522  0.09512710  0.90531334     0.76700
C793        C  0.56719777  0.06531016  0.76794312     0.77800
C794        C  0.64075530  0.12607606  0.85025353     0.76900
C795        C  0.76787120  0.24411735  0.76858413     0.80000
N796        N  0.75095996  0.26231909  0.74587776    -0.78300
C797        C  0.72178146  0.26154703  0.74817857     0.82400
N798        N  0.70977473  0.24116677  0.77277587    -0.78300
C799        C  0.72587249  0.22217630  0.79515465     0.82500
N800        N  0.75512553  0.22324313  0.79299562    -0.80000
C801        C  0.67682776  0.17811554  0.85851866    -0.02100
C802        C  0.66447765  0.14998053  0.83840328     0.07600
C803        C  0.67632518  0.14220061  0.80679695    -0.02200
C804        C  0.70015199  0.16242515  0.79543049    -0.02200
C805        C  0.71068554  0.19295705  0.81397256     0.07700
C806        C  0.69921805  0.20064500  0.84569108    -0.02400
Br807      Br  0.71283161  0.24353950  0.87022699    -0.01000
Br808      Br  0.66170184  0.18757197  0.90237024    -0.01000
Br809      Br  0.71719306  0.15017204  0.75286118    -0.01000
Br810      Br  0.65985991  0.10422727  0.77820549    -0.01000
C811        C  0.36122711  0.40920376  0.92850588    -0.02100
C812        C  0.39113373  0.41729501  0.92874383     0.07600
C813        C  0.40011869  0.45409922  0.93636337    -0.02200
C814        C  0.37986871  0.48111733  0.94736249    -0.02200
C815        C  0.35089668  0.47089599  0.95306002     0.07700
C816        C  0.34121903  0.43564611  0.94117991    -0.02400
Br817      Br  0.30106478  0.42143958  0.94387665    -0.01000
Br818      Br  0.34700527  0.36097908  0.91334334    -0.01000
Br819      Br  0.39160361  0.53268686  0.95279336    -0.01000
Br820      Br  0.44008918  0.46780936  0.93126754    -0.01000
C821        C  0.39813363  0.20767173  0.81250308    -0.02100
C822        C  0.38945700  0.22649800  0.84182373     0.07600
C823        C  0.35970026  0.22565179  0.85074263    -0.02200
C824        C  0.33885511  0.21430216  0.82745904    -0.02200
C825        C  0.34764021  0.20371518  0.79532216     0.07700
C826        C  0.37704672  0.19509773  0.79001765    -0.02400
Br827      Br  0.38795965  0.16514766  0.75209608    -0.01000
Br828      Br  0.43826830  0.20108515  0.80115936    -0.01000
Br829      Br  0.29862461  0.21359756  0.83992520    -0.01000
Br830      Br  0.34666647  0.24001013  0.89466803    -0.01000
C831        C  0.37296670  0.54710721  0.55394325    -0.02100
C832        C  0.34487082  0.53200304  0.55447998     0.07600
C833        C  0.33606899  0.51178396  0.58273583    -0.02200
C834        C  0.35687305  0.49870952  0.60541349    -0.02200
C835        C  0.38614681  0.50793946  0.60122419     0.07700
C836        C  0.39379659  0.53471661  0.57710225    -0.02400
Br837      Br  0.43284463  0.55247216  0.57470353    -0.01000
Br838      Br  0.38240944  0.58485397  0.52146291    -0.01000
Br839      Br  0.34536478  0.46635114  0.64117932    -0.01000
Br840      Br  0.29597970  0.50097667  0.59026429    -0.01000
C841        C  0.38869463  0.28337460  0.66730163    -0.02100
C842        C  0.38309195  0.32189305  0.67228587     0.07600
C843        C  0.35537103  0.33399699  0.68192751    -0.02200
C844        C  0.33411775  0.30760057  0.68979060    -0.02200
C845        C  0.34124894  0.26890752  0.69048624     0.07700
C846        C  0.36783774  0.25675884  0.67670715    -0.02400
Br847      Br  0.37594869  0.20376305  0.67162520    -0.01000
Br848      Br  0.42522451  0.26764070  0.64881095    -0.01000
Br849      Br  0.29640342  0.32544357  0.70261280    -0.01000
Br850      Br  0.34752717  0.38666724  0.68895781    -0.01000
C851        C  0.70086339  0.93774463  0.94949413    -0.02100
C852        C  0.69509190  0.93554223  0.98383768     0.07600
C853        C  0.66585761  0.93802927  0.99424170    -0.02200
C854        C  0.64493387  0.95462441  0.97330931    -0.02200
C855        C  0.65239344  0.96422532  0.94053046     0.07700
C856        C  0.67937433  0.95177389  0.92786573    -0.02400
Br857      Br  0.68716622  0.95476721  0.88083056    -0.01000
Br858      Br  0.73789888  0.92273826  0.93175531    -0.01000
Br859      Br  0.60794869  0.46763867  0.99041964    -0.01000
Br860      Br  0.65633881  0.42244913  0.03761357    -0.01000
C861        C  0.69015628  0.25999250  0.66356394    -0.02100
C862        C  0.66134172  0.25443212  0.67342085     0.07600
C863        C  0.65213201  0.26682729  0.70472737    -0.02200
C864        C  0.67268208  0.27838089  0.72808054    -0.02200
C865        C  0.70244856  0.27427121  0.72086759     0.07700
C866        C  0.71093229  0.27000461  0.68733013    -0.02400
Br867      Br  0.75048623  0.27619570  0.67348688    -0.01000
Br868      Br  0.70138443  0.25175072  0.61800937    -0.01000
Br869      Br  0.66022830  0.29791165  0.77052189    -0.01000
Br870      Br  0.61168243  0.26657227  0.71566478    -0.01000
C871        C  0.67943161  0.06706402  0.55516104    -0.02100
C872        C  0.66732626  0.06688341  0.58747123     0.07600
C873        C  0.68011003  0.04399954  0.61230025    -0.02200
C874        C  0.70309565  0.01929546  0.60393286    -0.02200
C875        C  0.71521386  0.02029963  0.57188562     0.07700
C876        C  0.70475616  0.04670642  0.54861304    -0.02400
Br877      Br  0.72263107  0.05043432  0.50522832    -0.01000
Br878      Br  0.66086796  0.09213164  0.51813175    -0.01000
Br879      Br  0.71654779  0.98194237  0.63508669    -0.01000
Br880      Br  0.66408915  0.04305398  0.65648623    -0.01000
C881        C  0.34440898  0.22769693  0.98482228    -0.02100
C882        C  0.35640188  0.26402372  0.98697512     0.07600
C883        C  0.33831785  0.29494545  0.99489913    -0.02200
C884        C  0.30814111  0.29091257  0.99508121    -0.02200
C885        C  0.29579823  0.25526045  0.98877370     0.07700
C886        C  0.31420960  0.22325786  0.98620580    -0.02400
Br887      Br  0.29963212  0.17458410  0.49215696    -0.01000
Br888      Br  0.37002878  0.18458598  0.47980694    -0.01000
Br889      Br  0.28431509  0.33536977  0.00111498    -0.01000
Br890      Br  0.35526396  0.34331054  0.00471928    -0.01000
C891        C  0.17657392  0.14475107  0.95318723    -0.02100
C892        C  0.16778933  0.14298137  0.91947752     0.07600
C893        C  0.18301674  0.16439633  0.89551299    -0.02200
C894        C  0.20416662  0.19047914  0.90595102    -0.02200
C895        C  0.21226922  0.19193445  0.93958336     0.07700
C896        C  0.20044588  0.16612419  0.96218734    -0.02400
Br897      Br  0.21717044  0.16671031  0.50934744    -0.01000
Br898      Br  0.15553434  0.12096385  0.98886297    -0.01000
Br899      Br  0.22129856  0.22506453  0.87497634    -0.01000
Br900      Br  0.17345930  0.16063819  0.84908178    -0.01000
C901        C  0.24354698  0.03425032  0.96622512    -0.02100
C902        C  0.25550553  0.51388148  0.99131361     0.07600
C903        C  0.23640520  0.48978621  0.00845293    -0.02200
C904        C  0.20682137  0.48862139  0.99970467    -0.02200
C905        C  0.19632117  0.51080694  0.97315706     0.07700
C906        C  0.21450642  0.03261869  0.95665828    -0.02400
Br907      Br  0.20327741  0.05870266  0.91674369    -0.01000
Br908      Br  0.27003120  0.07515219  0.44140232    -0.01000
Br909      Br  0.18085623  0.45661599  0.02395069    -0.01000
Br910      Br  0.25109161  0.45633808  0.04222090    -0.01000
C911        C  0.74904920  0.53425773  0.79625455    -0.02100
C912        C  0.75609345  0.50797708  0.77161561     0.07600
C913        C  0.73450948  0.48479630  0.75832983    -0.02200
C914        C  0.70564128  0.48796076  0.76960777    -0.02200
C915        C  0.69830858  0.51341623  0.79570439     0.07700
C916        C  0.72098745  0.03604429  0.80887161    -0.02400
Br917      Br  0.71605870  0.06973463  0.84659386    -0.01000
Br918      Br  0.77881777  0.06766973  0.81237032    -0.01000
Br919      Br  0.67730301  0.45545402  0.74964013    -0.01000
Br920      Br  0.74508939  0.44681676  0.72616465    -0.01000
C921        C  0.90009288  0.44314509  0.82312193    -0.02100
C922        C  0.89191387  0.40568649  0.82931513     0.07600
C923        C  0.86226825  0.39620805  0.82834796    -0.02200
C924        C  0.84189835  0.42226663  0.81593846    -0.02200
C925        C  0.85093813  0.45821171  0.80521603     0.07700
C926        C  0.87955661  0.46947426  0.81156300    -0.02400
Br927      Br  0.89052135  0.52127095  0.80539190    -0.01000
Br928      Br  0.93921895  0.45859145  0.83148734    -0.01000
Br929      Br  0.80219985  0.40678930  0.81139303    -0.01000
Br930      Br  0.84896335  0.34682671  0.84162505    -0.01000
C931        C  0.84792191  0.21756159  0.77279787    -0.02100
C932        C  0.86073157  0.25318219  0.76868531     0.07600
C933        C  0.84341194  0.28414062  0.75899511    -0.02200
C934        C  0.81318995  0.28127296  0.75877551    -0.02200
C935        C  0.79992396  0.24634830  0.76595223     0.07700
C936        C  0.81764436  0.21399435  0.77087077    -0.02400
Br937      Br  0.80092981  0.16448489  0.77470299    -0.01000
Br938      Br  0.87152743  0.17416704  0.78374718    -0.01000
Br939      Br  0.79064754  0.32682657  0.75221755    -0.01000
Br940      Br  0.86146168  0.33119804  0.74703053    -0.01000
C941        C  0.34534384  0.49586450  0.73198525    -0.02100
C942        C  0.36227176  0.46579583  0.74495608     0.07600
C943        C  0.34773790  0.93712103  0.76345034    -0.02200
C944        C  0.31739609  0.93425079  0.76275860    -0.02200
C945        C  0.30055030  0.46254580  0.74676218     0.07700
C946        C  0.31486394  0.49481211  0.73389901    -0.02400
Br947      Br  0.29356501  0.53895941  0.71933532    -0.01000
Br948      Br  0.36308283  0.53862075  0.71030841    -0.01000
Br949      Br  0.30110294  0.88835754  0.78058953    -0.01000
Br950      Br  0.36990986  0.90187185  0.79022743    -0.01000
C951        C  0.17631182  0.91638726  0.78829608    -0.02100
C952        C  0.20589594  0.92252745  0.79498880     0.07600
C953        C  0.21366171  0.93336065  0.82748737    -0.02200
C954        C  0.19220269  0.94679743  0.84929602    -0.02200
C955        C  0.16352806  0.95093521  0.83819077     0.07700
C956        C  0.15515529  0.93333531  0.80858881    -0.02400
Br957      Br  0.11534988  0.93429663  0.79509914    -0.01000
Br958      Br  0.16528239  0.88904937  0.74894271    -0.01000
Br959      Br  0.20232824  0.96129792  0.89381162    -0.01000
Br960      Br  0.25326177  0.93279464  0.84202643    -0.01000
C961        C  0.18472315  0.25081746  0.58609406    -0.02100
C962        C  0.15688165  0.24093591  0.57451117     0.07600
C963        C  0.14752776  0.25550590  0.54369662    -0.02200
C964        C  0.16719153  0.27452701  0.52303219    -0.02200
C965        C  0.19684394  0.27548600  0.53133448     0.07700
C966        C  0.20462677  0.26826575  0.56460117    -0.02400
Br967      Br  0.24220147  0.28196544  0.58110529    -0.01000
Br968      Br  0.19600001  0.24073063  0.63146078    -0.01000
Br969      Br  0.15409995  0.29714513  0.48199099    -0.01000
Br970      Br  0.10910095  0.24612303  0.52763094    -0.01000
C971        C  0.16232759  0.04528988  0.71308202    -0.02100
C972        C  0.15871266  0.04858932  0.67833794     0.07600
C973        C  0.17769419  0.02879148  0.65682379    -0.02200
C974        C  0.20011278  0.00599150  0.66999982    -0.02200
C975        C  0.20417539  0.00397174  0.70455268     0.07700
C976        C  0.18579737  0.02486369  0.72588072    -0.02400
Br977      Br  0.19376446  0.02765326  0.77312449    -0.01000
Br978      Br  0.13681891  0.07105466  0.74410639    -0.01000
Br979      Br  0.22497122  0.97717251  0.64109507    -0.01000
Br980      Br  0.17180489  0.03087663  0.60945993    -0.01000
C981        C  0.21396858  0.17252754  0.72562536    -0.02100
C982        C  0.19345696  0.20248463  0.72512374     0.07600
C983        C  0.20225419  0.23859142  0.73578119    -0.02200
C984        C  0.23168549  0.24526684  0.74292230    -0.02200
C985        C  0.25237838  0.21601259  0.73943033     0.07700
C986        C  0.24314041  0.17934225  0.73244604    -0.02400
Br987      Br  0.27099979  0.13851693  0.73035449    -0.01000
Br988      Br  0.20272168  0.12142629  0.71696072    -0.01000
Br989      Br  0.24349450  0.29412407  0.75831767    -0.01000
Br990      Br  0.17465882  0.27940148  0.73923650    -0.01000
C991        C  0.74222895  0.18018166  0.54408740    -0.02100
C992        C  0.75297478  0.20708087  0.52182793     0.07600
C993        C  0.73363283  0.23243849  0.50611041    -0.02200
C994        C  0.70365879  0.23083539  0.51291046    -0.02200
C995        C  0.69307487  0.20472239  0.53633585     0.07700
C996        C  0.71290375  0.18036745  0.55263929    -0.02400
Br997      Br  0.70157138  0.15173591  0.59100887    -0.01000
Br998      Br  0.76809485  0.14303725  0.56331870    -0.01000
Br999      Br  0.67733186  0.26487540  0.49084471    -0.01000
Br1000     Br  0.74833208  0.27032573  0.47645658    -0.01000
C1001       C  0.84173286  0.20523909  0.93304676    -0.02100
C1002       C  0.85053037  0.19720597  0.96584797     0.07600
C1003       C  0.88038337  0.19192281  0.97184417    -0.02200
C1004       C  0.90099457  0.20559171  0.94932815    -0.02200
C1005       C  0.89204081  0.21934050  0.91812277     0.07700
C1006       C  0.86256075  0.21517896  0.90901571    -0.02400
Br1007     Br  0.85010261  0.22297050  0.86367550    -0.01000
Br1008     Br  0.80162607  0.20305341  0.92033607    -0.01000
Br1009     Br  0.94060777  0.20903429  0.96371400    -0.01000
Br1010     Br  0.89327845  0.16450691  0.01042240    -0.01000
C1011       C  0.89129393  0.52154304  0.67683630    -0.02100
C1012       C  0.88395744  0.49641659  0.65140338     0.07600
C1013       C  0.85468622  0.48889327  0.64522014    -0.02200
C1014       C  0.83366650  0.49881780  0.66889415    -0.02200
C1015       C  0.84201756  0.51810929  0.69780474     0.07700
C1016       C  0.86979128  0.53394738  0.69903301    -0.02400
Br1017     Br  0.87788679  0.57207337  0.73153140    -0.01000
Br1018     Br  0.93062214  0.53723245  0.68209934    -0.01000
Br1019     Br  0.79440165  0.48339521  0.66257578    -0.01000
Br1020     Br  0.84363094  0.46457599  0.60463316    -0.01000
C1021       C  0.85516526  0.31626753  0.58773191    -0.02100
C1022       C  0.88440552  0.30486593  0.58940069     0.07600
C1023       C  0.89133146  0.26613141  0.58955082    -0.02200
C1024       C  0.86940486  0.23962083  0.58440642    -0.02200
C1025       C  0.84155826  0.25185582  0.57530750     0.07700
C1026       C  0.83367203  0.28971895  0.58080084    -0.02400
Br1027     Br  0.79404976  0.30592706  0.57607347    -0.01000
Br1028     Br  0.84467843  0.36871832  0.59030212    -0.01000
Br1029     Br  0.87673967  0.18647172  0.58976544    -0.01000
Br1030     Br  0.93069495  0.24949614  0.59484973    -0.01000
C1031       C  0.81083605  0.42114586  0.51043760    -0.02100
C1032       C  0.79798930  0.45631321  0.51852138     0.07600
C1033       C  0.81531558  0.98741490  0.51872358    -0.02200
C1034       C  0.84565057  0.98345328  0.51663165    -0.02200
C1035       C  0.85939899  0.44864552  0.51423189     0.07700
C1036       C  0.84111946  0.41759307  0.50718829    -0.02400
Br1037     Br  0.85668663  0.36972812  0.49186456    -0.01000
Br1038     Br  0.78754086  0.37641974  0.50629161    -0.01000
Br1039     Br  0.86845307  0.02899773  0.51630251    -0.01000
Br1040     Br  0.79877821  0.03757971  0.52147546    -0.01000
C1041       C  0.04518363  0.58648828  0.07782995     0.80000
N1042       N  0.05545333  0.58952295  0.04604501    -0.78300
C1043       C  0.04710948  0.56465427  0.02201940     0.82400
N1044       N  0.02876313  0.53655181  0.03006527    -0.78300
C1045       C  0.01902533  0.53222739  0.06157269     0.82500
N1046       N  0.02748071  0.55699213  0.08562729    -0.80000
Zn1047     Zn  0.99403034  0.91477673  0.07624074     1.49700
Zn1048     Zn  0.93878203  0.96786919  0.06790505     1.49400
Zn1049     Zn  0.93700593  0.88300886  0.04453171     1.49100
Zn1050     Zn  0.93718193  0.89989403  0.11958284     1.49500
O1051       O  0.95234477  0.91682350  0.07767003    -1.84400
O1052       O  0.00961894  0.96953114  0.07983194    -0.75000
O1053       O  0.90656718  0.96771583  0.03352059    -0.74800
O1054       O  0.96515975  0.87604713  0.00609382    -0.74300
O1055       O  0.97255785  0.00255162  0.05881686    -0.75000
O1056       O  0.00537652  0.89828665  0.02884602    -0.74600
O1057       O  0.90000598  0.90666395  0.02879436    -0.75200
O1058       O  0.90873052  0.85783933  0.11223083    -0.74600
O1059       O  0.91709103  0.98964240  0.10641219    -0.75400
O1060       O  0.92334249  0.83383032  0.06408846    -0.74700
O1061       O  0.91427630  0.94182879  0.14216539    -0.75200
O1062       O  0.96961762  0.87702814  0.14661714    -0.75100
O1063       O  0.00833685  0.87727445  0.11347291    -0.74900
C1064       C  0.99888234  0.00022089  0.06798292     0.76900
C1065       C  0.89060508  0.94018261  0.02526039     0.77400
C1066       C  0.99167107  0.88493561  0.00391533     0.76300
C1067       C  0.90733271  0.83263769  0.08981201     0.76700
C1068       C  0.90752835  0.97526457  0.13306070     0.77800
C1069       C  0.99551916  0.86673641  0.14020742     0.76900
C1070       C  0.78517294  0.71235771  0.02065290     0.80000
N1071       N  0.79965237  0.70510771  0.49249803    -0.78300
C1072       C  0.82885713  0.70970284  0.49272124     0.82400
N1073       N  0.84141790  0.72376197  0.52034395    -0.78300
C1074       C  0.82715452  0.72985004  0.04944204     0.82500
N1075       N  0.79811775  0.72657812  0.04818145    -0.80000
C1076       C  0.00952418  0.84100780  0.16476517     0.80000
N1077       N  0.02876103  0.81329360  0.15547222    -0.78300
C1078       C  0.03798690  0.78712444  0.17831567     0.82400
N1079       N  0.02727097  0.78839871  0.20974406    -0.78300
C1080       C  0.00808139  0.81546444  0.21910507     0.82500
N1081       N  0.99907042  0.84129475  0.19644187    -0.80000
Zn1082     Zn  0.10198635  0.69984085  0.20067272     1.49700
Zn1083     Zn  0.08365329  0.61827170  0.17399062     1.49400
Zn1084     Zn  0.07955664  0.69187604  0.12512144     1.49100
Zn1085     Zn  0.13637655  0.65506334  0.14427202     1.49500
O1086       O  0.09893745  0.66730968  0.16189249    -1.84400
O1087       O  0.07956649  0.67564455  0.23858097    -0.75000
O1088       O  0.06126323  0.59843897  0.13326915    -0.74800
O1089       O  0.05335859  0.73448473  0.14445127    -0.74300
O1090       O  0.06150915  0.62190658  0.21899683    -0.75000
O1091       O  0.07812814  0.74776382  0.19076669    -0.74600
O1092       O  0.06138288  0.64720766  0.09765906    -0.75200
O1093       O  0.14817181  0.68544365  0.10550692    -0.74600
O1094       O  0.11874074  0.58398749  0.18193472    -0.75400
O1095       O  0.10945994  0.72106013  0.09757025    -0.74700
O1096       O  0.14462711  0.60028279  0.13823104    -0.75200
O1097       O  0.16435406  0.67022379  0.17737855    -0.75100
O1098       O  0.14545363  0.70688813  0.21544519    -0.74900
C1099       C  0.06394842  0.64644360  0.24221582     0.76900
C1100       C  0.05605197  0.61235952  0.10442590     0.77400
C1101       C  0.05795210  0.75540095  0.16994961     0.76300
C1102       C  0.13610659  0.71401738  0.09243015     0.76700
C1103       C  0.14124003  0.58004873  0.16390985     0.77800
C1104       C  0.16756747  0.69009597  0.20297386     0.76900
C1105       C  0.27135101  0.96257234  0.24618439     0.80000
N1106       N  0.25534444  0.94313809  0.26880572    -0.78300
C1107       C  0.22755564  0.44791743  0.26325224     0.82400
N1108       N  0.21551279  0.46697635  0.23776885    -0.78300
C1109       C  0.23125350  0.48721135  0.21625481     0.82500
N1110       N  0.26038413  0.48822775  0.21990515    -0.80000
C1111       C  0.04619573  0.61571942  0.32844218     0.80000
N1112       N  0.05730849  0.61611024  0.29697314    -0.78300
C1113       C  0.04845353  0.64213410  0.27429110     0.82400
N1114       N  0.02878917  0.66868928  0.28358675    -0.78300
C1115       C  0.01749143  0.66934524  0.31484589     0.82500
N1116       N  0.02647551  0.64291496  0.33754908    -0.80000
Zn1117     Zn  0.97132825  0.76323060  0.36708344     1.49700
Zn1118     Zn  0.95475379  0.75657134  0.29056051     1.49400
Zn1119     Zn  0.91714020  0.80318930  0.34030513     1.49100
Zn1120     Zn  0.97180302  0.83858304  0.31836622     1.49500
O1121       O  0.95559884  0.78923619  0.32871004    -1.84400
O1122       O  0.99823802  0.71913181  0.35015313    -0.75000
O1123       O  0.91286426  0.74657512  0.27540058    -0.74800
O1124       O  0.90080334  0.77251412  0.37566280    -0.74300
O1125       O  0.97876699  0.70960687  0.30013578    -0.75000
O1126       O  0.93761430  0.73815680  0.39287745    -0.74600
O1127       O  0.89104168  0.79338456  0.30252903    -0.75200
O1128       O  0.93851487  0.87719891  0.31245147    -0.74600
O1129       O  0.97699034  0.78154373  0.25374742    -0.75400
O1130       O  0.91305536  0.85628658  0.35449010    -0.74700
O1131       O  0.99420253  0.83555473  0.27388559    -0.75200
O1132       O  0.99481305  0.85512981  0.35948369    -0.75100
O1133       O  0.99034941  0.80667831  0.39506433    -0.74900
C1134       C  0.99665474  0.70031931  0.32291695     0.76900
C1135       C  0.89042685  0.76669550  0.28153788     0.77400
C1136       C  0.91065623  0.74609995  0.39347094     0.76300
C1137       C  0.91706865  0.88068068  0.33216838     0.76700
C1138       C  0.99233698  0.81098794  0.25066958     0.77800
C1139       C  0.99810245  0.84076605  0.38849102     0.76900
C1140       C  0.78818390  0.00347522  0.26243630     0.80000
N1141       N  0.80568632  0.98827213  0.28607324    -0.78300
C1142       C  0.83441223  0.98464165  0.28080659     0.82400
N1143       N  0.84554888  0.99693999  0.25183882    -0.78300
C1144       C  0.82869527  0.01291272  0.22813082     0.82500
N1145       N  0.79966336  0.01583217  0.23318737    -0.80000
C1146       C  0.00941226  0.86545679  0.41556394     0.80000
N1147       N  0.02767033  0.89461065  0.40843944    -0.78300
C1148       C  0.03638868  0.91861585  0.43294672     0.82400
N1149       N  0.02607110  0.91405558  0.46425254    -0.78300
C1150       C  0.00709467  0.88622357  0.47157053     0.82500
N1151       N  0.99874614  0.86208340  0.44707637    -0.80000
Zn1152     Zn  0.05920340  0.53805460  0.41607743     1.49700
Zn1153     Zn  0.11563245  0.98440992  0.42401281     1.49400
Zn1154     Zn  0.11824772  0.55819417  0.37600868     1.49100
Zn1155     Zn  0.11475592  0.56719193  0.44973931     1.49500
O1156       O  0.10081587  0.53569735  0.41494795    -1.84400
O1157       O  0.04454790  0.98166181  0.41380314    -0.75000
O1158       O  0.13388195  0.46551901  0.38048106    -0.74800
O1159       O  0.08673139  0.58296777  0.34908259    -0.74300
O1160       O  0.08193986  0.94923549  0.43510894    -0.75000
O1161       O  0.04580666  0.57585436  0.37789316    -0.74600
O1162       O  0.14062963  0.51772328  0.35052632    -0.75200
O1163       O  0.12185139  0.61934648  0.43341929    -0.74600
O1164       O  0.15164425  0.98511216  0.45444175    -0.75400
O1165       O  0.14657503  0.59945196  0.39011041    -0.74700
O1166       O  0.15370201  0.54653213  0.46170918    -0.75200
O1167       O  0.08786028  0.57009532  0.48865926    -0.75100
O1168       O  0.04681827  0.55507490  0.46349789    -0.74900
C1169       C  0.05545640  0.95123426  0.42611266     0.76900
C1170       C  0.14474285  0.48250762  0.35571415     0.77400
C1171       C  0.05989755  0.58991163  0.35325004     0.76300
C1172       C  0.14333786  0.62248559  0.41418498     0.76700
C1173       C  0.16542664  0.01446784  0.46346682     0.77800
C1174       C  0.06076741  0.56495829  0.48950907     0.76900
C1175       C  0.26551890  0.75403269  0.48671419     0.80000
N1176       N  0.24523062  0.76810298  0.00438702    -0.78300
C1177       C  0.21626980  0.76459772  0.00041077     0.82400
N1178       N  0.20664580  0.74439737  0.97437852    -0.78300
C1179       C  0.22564749  0.72994403  0.45748304     0.82500
N1180       N  0.25464806  0.73205694  0.46191418    -0.80000
C1181       C  0.50565432  0.85027156  0.09269019     0.80000
N1182       N  0.52485141  0.82215660  0.10108108    -0.78300
C1183       C  0.53183612  0.79475853  0.07835606     0.82400
N1184       N  0.51957482  0.79555195  0.04788314    -0.78300
C1185       C  0.50093257  0.82332796  0.03907736     0.82500
N1186       N  0.49361290  0.85023297  0.06168454    -0.80000
Zn1187     Zn  0.61273446  0.73204758  0.08484466     1.49700
Zn1188     Zn  0.61301910  0.64985697  0.05660426     1.47000
Zn1189     Zn  0.61785195  0.65961105  0.13105876     1.49100
Zn1190     Zn  0.55750406  0.67658028  0.09249588     1.49500
O1191       O  0.59903945  0.68069020  0.09221491    -1.84400
O1192       O  0.64773917  0.73324486  0.05302024    -0.75000
O1193       O  0.62255736  0.59816133  0.07276344    -0.74800
O1194       O  0.63983597  0.70071453  0.15547386    -0.74300
O1195       O  0.65097080  0.67185318  0.04320577    -0.75000
O1196       O  0.63144181  0.75241894  0.12540256    -0.74600
O1197       O  0.64636384  0.61858411  0.11648076    -0.75200
O1198       O  0.54674912  0.63850526  0.13201391    -0.74600
O1199       O  0.58515802  0.64566537  0.01855609    -0.75400
O1200       O  0.58826323  0.63464323  0.16011565    -0.74700
O1201       O  0.54410454  0.65936154  0.04474944    -0.75200
O1202       O  0.54167646  0.73180246  0.09649771    -0.75100
O1203       O  0.57815255  0.76628569  0.07633184    -0.74900
C1204       C  0.66214404  0.70442458  0.04320633     0.76900
C1205       C  0.64378357  0.59543900  0.09244912     0.77400
C1206       C  0.64297105  0.73595723  0.15006951     0.76300
C1207       C  0.56178508  0.62600479  0.15675381     0.76700
C1208       C  0.55787068  0.64976223  0.01829073     0.77800
C1209       C  0.55183822  0.76309556  0.08547914     0.76900
C1210       C  0.76695948  0.46177738  0.02256239     0.80000
N1211       N  0.74554164  0.94151658  0.50613402    -0.78300
C1212       C  0.71758547  0.44522728  0.51253907     0.82400
N1213       N  0.70931679  0.46636983  0.53864460    -0.78300
C1214       C  0.72817441  0.48908770  0.05227932     0.82500
N1215       N  0.75696873  0.48537597  0.04689691    -0.80000
C1216       C  0.54990912  0.59926976  0.18204996     0.80000
N1217       N  0.56219114  0.59814043  0.21303580    -0.78300
C1218       C  0.55523862  0.57047880  0.23513239     0.82400
N1219       N  0.53685225  0.54311370  0.22565415    -0.78300
C1220       C  0.52441801  0.54348338  0.19522670     0.82500
N1221       N  0.53084815  0.57169652  0.17325384    -0.80000
Zn1222     Zn  0.43906887  0.89889836  0.21720632     1.49700
Zn1223     Zn  0.49584238  0.92557467  0.18242438     1.49400
Zn1224     Zn  0.43643091  0.91141285  0.14204469     1.49100
Zn1225     Zn  0.44121570  0.98257703  0.18988245     1.49500
O1226       O  0.45400288  0.93040499  0.18221084    -1.84400
O1227       O  0.46773062  0.89138314  0.25454305    -0.75000
O1228       O  0.50763992  0.88759888  0.14364263    -0.74800
O1229       O  0.40753398  0.87044004  0.15252675    -0.74300
O1230       O  0.50864227  0.90816791  0.22988597    -0.75000
O1231       O  0.42441689  0.84936182  0.20067727    -0.74600
O1232       O  0.46711576  0.88691379  0.11358749    -0.75200
O1233       O  0.41777670  0.00236056  0.15136448    -0.74600
O1234       O  0.51277701  0.97971995  0.17887386    -0.75400
O1235       O  0.41346343  0.95220213  0.11857057    -0.74700
O1236       O  0.47601775  0.01650344  0.19559063    -0.75200
O1237       O  0.41126583  0.98543130  0.22719053    -0.75100
O1238       O  0.40338962  0.92454772  0.23367769    -0.74900
C1239       C  0.49481737  0.89695031  0.25563142     0.76900
C1240       C  0.49329916  0.87667137  0.11803505     0.77400
C1241       C  0.40742894  0.84646817  0.17606178     0.76300
C1242       C  0.40730502  0.98630131  0.12594010     0.76700
C1243       C  0.50263179  0.01184887  0.18826779     0.77800
C1244       C  0.39519346  0.95864377  0.23708266     0.76900
C1245       C  0.28757087  0.71117656  0.24171549     0.80000
N1246       N  0.30209414  0.72949768  0.21718858    -0.78300
C1247       C  0.33091199  0.73514293  0.21964761     0.82400
N1248       N  0.34505301  0.72217055  0.24669265    -0.78300
C1249       C  0.33122204  0.70347174  0.27124256     0.82500
N1250       N  0.30218468  0.69811378  0.26887929    -0.80000
C1251       C  0.54358726  0.62236571  0.43019530     0.80000
N1252       N  0.55322849  0.62030499  0.46224757    -0.78300
C1253       C  0.54351703  0.64518163  0.48575505     0.82400
N1254       N  0.52412374  0.67224222  0.47683185    -0.78300
C1255       C  0.51496432  0.67567502  0.44484712     0.82500
N1256       N  0.52516466  0.65107824  0.42139644    -0.80000
Zn1257     Zn  0.45113579  0.76264958  0.46652379     1.49700
Zn1258     Zn  0.46815723  0.84430153  0.43860218     1.49400
Zn1259     Zn  0.47041032  0.76836665  0.39084080     1.49100
Zn1260     Zn  0.41501769  0.80738325  0.41406576     1.49500
O1261       O  0.45300776  0.79471690  0.42806952    -1.84400
O1262       O  0.47152692  0.78860958  0.50392635    -0.75000
O1263       O  0.49288413  0.86016828  0.39883817    -0.74800
O1264       O  0.49756804  0.72624346  0.40962145    -0.74300
O1265       O  0.48837135  0.84309894  0.48436709    -0.75000
O1266       O  0.47591203  0.71600601  0.45842698    -0.74600
O1267       O  0.48947666  0.81198456  0.36282528    -0.75200
O1268       O  0.40073237  0.77408150  0.37954134    -0.74600
O1269       O  0.43459869  0.88245282  0.44154585    -0.75400
O1270       O  0.43824237  0.73907231  0.36581628    -0.74700
O1271       O  0.40983957  0.86035656  0.39938724    -0.75200
O1272       O  0.38775090  0.79754969  0.45078836    -0.75100
O1273       O  0.40905852  0.75245190  0.48052480    -0.74900
C1274       C  0.48603218  0.81865219  0.50763273     0.76900
C1275       C  0.49709080  0.84598136  0.36994058     0.77400
C1276       C  0.49484938  0.70719455  0.43660087     0.76300
C1277       C  0.41112426  0.74570079  0.36470426     0.76700
C1278       C  0.41372146  0.88555767  0.42107091     0.77800
C1279       C  0.38672565  0.77206982  0.47295925     0.76900
C1280       C  0.28829541  0.01251415  0.49107878     0.80000
N1281       N  0.30483643  0.99712544  0.46662785    -0.78300
C1282       C  0.33382521  0.99396619  0.47020731     0.82400
N1283       N  0.34337219  0.00450410  0.00462757    -0.78300
C1284       C  0.32727744  0.02010946  0.02928475     0.82500
N1285       N  0.29800034  0.02185664  0.02592561    -0.80000
C1286       C  0.50969129  0.87090916  0.34384503     0.80000
N1287       N  0.52840570  0.89890322  0.35240357    -0.78300
C1288       C  0.53872497  0.92310690  0.32890195     0.82400
N1289       N  0.52931207  0.92006404  0.29699161    -0.78300
C1290       C  0.50957923  0.89366981  0.28832648     0.82500
N1291       N  0.49981872  0.86918465  0.31193641    -0.80000
Zn1292     Zn  0.63879437  0.55021892  0.36910628     1.49700
Zn1293     Zn  0.60513027  0.50929833  0.30982591     1.49400
Zn1294     Zn  0.58046020  0.51634267  0.38526151     1.49100
Zn1295     Zn  0.58698144  0.59023132  0.33711145     1.49500
O1296       O  0.60162874  0.54053597  0.34962082    -1.84400
O1297       O  0.66713447  0.53221191  0.33744013    -0.75000
O1298       O  0.57909803  0.96166213  0.31712806    -0.74800
O1299       O  0.60866383  0.48651366  0.41574979    -0.74300
O1300       O  0.64738271  0.99971119  0.29563010    -0.75000
O1301       O  0.64838978  0.51977943  0.40880574    -0.74600
O1302       O  0.55428913  0.97424183  0.36381096    -0.75200
O1303       O  0.56281665  0.61048647  0.37617220    -0.74600
O1304       O  0.58524438  0.53575336  0.27134006    -0.75400
O1305       O  0.56077570  0.56141159  0.41132774    -0.74700
O1306       O  0.56695553  0.58961306  0.29096301    -0.75200
O1307       O  0.62200508  0.62328470  0.33127898    -0.75100
O1308       O  0.64942898  0.60464708  0.37329345    -0.74900
C1309       C  0.66965185  0.01302456  0.31010470     0.76900
C1310       C  0.55865736  0.95428400  0.33755304     0.77400
C1311       C  0.63522035  0.49243001  0.42206469     0.76300
C1312       C  0.55593149  0.59644393  0.40441056     0.76700
C1313       C  0.57032017  0.56579086  0.26734262     0.77800
C1314       C  0.64490004  0.62613050  0.34854231     0.76900
C1315       C  0.76874864  0.74979461  0.26593380     0.80000
N1316       N  0.75174114  0.76803542  0.24329631    -0.78300
C1317       C  0.72252741  0.76699564  0.24559811     0.82400
N1318       N  0.71058841  0.74605938  0.26992007    -0.78300
C1319       C  0.72678283  0.72694127  0.29212256     0.82500
N1320       N  0.75600641  0.72861714  0.29013538    -0.80000
C1321       C  0.68034179  0.67914294  0.35642755    -0.02100
C1322       C  0.66829991  0.65061222  0.33647025     0.07600
C1323       C  0.67960999  0.64381873  0.30441718    -0.02200
C1324       C  0.70191446  0.66621216  0.29202978    -0.02200
C1325       C  0.71199718  0.69700595  0.31061118     0.07700
C1326       C  0.70150306  0.70322895  0.34299774    -0.02400
Br1327     Br  0.71466197  0.74624036  0.36771476    -0.01000
Br1328     Br  0.66669304  0.68665346  0.40117407    -0.01000
Br1329     Br  0.71748984  0.65631497  0.24824666    -0.01000
Br1330     Br  0.66459124  0.60393847  0.27680618    -0.01000
C1331       C  0.36229306  0.90781692  0.42505629    -0.02100
C1332       C  0.39210169  0.91635270  0.42460016     0.07600
C1333       C  0.40085587  0.95361477  0.43069220    -0.02200
C1334       C  0.38048785  0.98087453  0.44094160    -0.02200
C1335       C  0.35167327  0.97048411  0.44738930     0.07700
C1336       C  0.34223377  0.93442628  0.43730138    -0.02400
Br1337     Br  0.30255323  0.91914305  0.44280656    -0.01000
Br1338     Br  0.34838283  0.85883473  0.41150422    -0.01000
Br1339     Br  0.39195303  0.03273203  0.44529828    -0.01000
Br1340     Br  0.44068772  0.96745174  0.42469823    -0.01000
C1341       C  0.39846793  0.69781682  0.31962811    -0.02100
C1342       C  0.39020643  0.72119645  0.34651291     0.07600
C1343       C  0.36032793  0.72300275  0.35498531    -0.02200
C1344       C  0.33935684  0.71092866  0.33221250    -0.02200
C1345       C  0.34809646  0.69535073  0.30175921     0.07700
C1346       C  0.37711075  0.68385681  0.29809869    -0.02400
Br1347     Br  0.38699434  0.64907910  0.26313219    -0.01000
Br1348     Br  0.43833929  0.68571519  0.31067441    -0.01000
Br1349     Br  0.29896059  0.71767113  0.34228723    -0.01000
Br1350     Br  0.34719895  0.74142211  0.39768777    -0.01000
C1351       C  0.37043429  0.04368174  0.05885253    -0.02100
C1352       C  0.34240399  0.02859675  0.06086516     0.07600
C1353       C  0.33433635  0.00983611  0.09022524    -0.02200
C1354       C  0.35573330  0.99839542  0.11291024    -0.02200
C1355       C  0.38496418  0.00606396  0.10642126     0.07700
C1356       C  0.39211613  0.03115088  0.08078198    -0.02400
Br1357     Br  0.43153400  0.04619821  0.07452326    -0.01000
Br1358     Br  0.37848558  0.08185031  0.02627971    -0.01000
Br1359     Br  0.34522988  0.97085984  0.15221491    -0.01000
Br1360     Br  0.29456194  0.99895378  0.09934308    -0.01000
C1361       C  0.39424649  0.77841145  0.17621489    -0.02100
C1362       C  0.38565553  0.81647841  0.17672187     0.07600
C1363       C  0.35661240  0.82603404  0.18310953    -0.02200
C1364       C  0.33692635  0.79801713  0.19250082    -0.02200
C1365       C  0.34663093  0.76046266  0.19676420     0.07700
C1366       C  0.37477046  0.75037972  0.18621697    -0.02400
Br1367     Br  0.38698142  0.69831220  0.18625415    -0.01000
Br1368     Br  0.43305268  0.76523345  0.16299818    -0.01000
Br1369     Br  0.29766294  0.81250187  0.20284519    -0.01000
Br1370     Br  0.34454878  0.87812913  0.18344806    -0.01000
C1371       C  0.70034662  0.43840398  0.45313574    -0.02100
C1372       C  0.69443588  0.43725899  0.48753871     0.07600
C1373       C  0.66520356  0.44167049  0.49778027    -0.02200
C1374       C  0.64484421  0.45866392  0.47635617    -0.02200
C1375       C  0.65258011  0.46655645  0.44334162     0.07700
C1376       C  0.67923507  0.45259693  0.43111450    -0.02400
Br1377     Br  0.68706003  0.45384618  0.38401909    -0.01000
Br1378     Br  0.73705581  0.42177084  0.43560756    -0.01000
Br1379     Br  0.60718574  0.97500632  0.49385034    -0.01000
Br1380     Br  0.65247416  0.92743895  0.54305762    -0.01000
C1381       C  0.69085828  0.76439245  0.16143135    -0.02100
C1382       C  0.66224034  0.75772883  0.17157343     0.07600
C1383       C  0.65289358  0.77058138  0.20272087    -0.02200
C1384       C  0.67330988  0.78333660  0.22575908    -0.02200
C1385       C  0.70308322  0.77999034  0.21845704     0.07700
C1386       C  0.71144842  0.77586760  0.18491231    -0.02400
Br1387     Br  0.75050830  0.78515313  0.17076945    -0.01000
Br1388     Br  0.70208326  0.75606403  0.11590493    -0.01000
Br1389     Br  0.66085778  0.80350695  0.26795076    -0.01000
Br1390     Br  0.61251737  0.76950882  0.21388905    -0.01000
C1391       C  0.67963656  0.56997560  0.05180808    -0.02100
C1392       C  0.66769296  0.56906324  0.08419553     0.07600
C1393       C  0.68045563  0.54547041  0.10849500    -0.02200
C1394       C  0.70351286  0.52114196  0.09962587    -0.02200
C1395       C  0.71546573  0.52290630  0.06754284     0.07700
C1396       C  0.70491700  0.54975672  0.04476124    -0.02400
Br1397     Br  0.72288240  0.55460949  0.00150047    -0.01000
Br1398     Br  0.66072916  0.59544227  0.01523507    -0.01000
Br1399     Br  0.71745023  0.48342816  0.13015649    -0.01000
Br1400     Br  0.66409946  0.54284799  0.15244761    -0.01000
C1401       C  0.34558517  0.72880084  0.48671962    -0.02100
C1402       C  0.35795003  0.76502034  0.48783352     0.07600
C1403       C  0.34023880  0.79638840  0.49556428    -0.02200
C1404       C  0.31003986  0.79285323  0.49621337    -0.02200
C1405       C  0.29730993  0.75720088  0.49128450     0.07700
C1406       C  0.31538939  0.72486115  0.48937287    -0.02400
Br1407     Br  0.29832759  0.67317064  0.98033690    -0.01000
Br1408     Br  0.36880472  0.68440501  0.97351663    -0.01000
Br1409     Br  0.28663135  0.83786384  0.50086035    -0.01000
Br1410     Br  0.35765728  0.84468127  0.50449800    -0.01000
C1411       C  0.17722130  0.64884135  0.45627104    -0.02100
C1412       C  0.16666150  0.64906562  0.42322810     0.07600
C1413       C  0.18006695  0.67249919  0.39936787    -0.02200
C1414       C  0.20211037  0.69748646  0.40924367    -0.02200
C1415       C  0.21231365  0.69676817  0.44213331     0.07700
C1416       C  0.20128672  0.67023143  0.46468145    -0.02400
Br1417     Br  0.21724779  0.66266451  0.00512798    -0.01000
Br1418     Br  0.15834221  0.62195892  0.49186022    -0.01000
Br1419     Br  0.21754336  0.73378998  0.37859454    -0.01000
Br1420     Br  0.16632010  0.67339750  0.35422124    -0.01000
C1421       C  0.24523919  0.54017939  0.46184564    -0.02100
C1422       C  0.25663715  0.01401073  0.48655222     0.07600
C1423       C  0.23839966  0.98741280  0.50193218    -0.02200
C1424       C  0.20847576  0.98728475  0.49492675    -0.02200
C1425       C  0.19685933  0.01279267  0.47146975     0.07700
C1426       C  0.21603955  0.53784017  0.45297082    -0.02400
Br1427     Br  0.20342952  0.56525846  0.41434368    -0.01000
Br1428     Br  0.27095860  0.56825277  0.94047422    -0.01000
Br1429     Br  0.18365030  0.95203309  0.51718220    -0.01000
Br1430     Br  0.25468798  0.94950656  0.53077946    -0.01000
C1431       C  0.75009025  0.03360752  0.29610590    -0.02100
C1432       C  0.75728935  0.00857463  0.27052266     0.07600
C1433       C  0.73598686  0.98503286  0.25704766    -0.02200
C1434       C  0.70730054  0.98650082  0.26919804    -0.02200
C1435       C  0.69985692  0.01090562  0.29598251     0.07700
C1436       C  0.72305878  0.53545016  0.31074919    -0.02400
Br1437     Br  0.71783944  0.56803281  0.34921236    -0.01000
Br1438     Br  0.78048754  0.56803323  0.31488760    -0.01000
Br1439     Br  0.67940753  0.95294732  0.24975206    -0.01000
Br1440     Br  0.74670508  0.94896148  0.22330697    -0.01000
C1441       C  0.90270501  0.94789943  0.32034999    -0.02100
C1442       C  0.89482504  0.91041956  0.32707578     0.07600
C1443       C  0.86522185  0.90061860  0.32657136    -0.02200
C1444       C  0.84459518  0.92614745  0.31397724    -0.02200
C1445       C  0.85318184  0.96229623  0.30333038     0.07700
C1446       C  0.88177000  0.97399716  0.30927405    -0.02400
Br1447     Br  0.89210736  0.02607914  0.30327068    -0.01000
Br1448     Br  0.94193457  0.96376737  0.32731002    -0.01000
Br1449     Br  0.80524021  0.90939634  0.30872633    -0.01000
Br1450     Br  0.85216993  0.85151479  0.34091617    -0.01000
C1451       C  0.84885221  0.72327855  0.27213688    -0.02100
C1452       C  0.86184605  0.75856169  0.26677203     0.07600
C1453       C  0.84472752  0.78910116  0.25569506    -0.02200
C1454       C  0.81446884  0.78626521  0.25479288    -0.02200
C1455       C  0.80092730  0.75184704  0.26338242     0.07700
C1456       C  0.81856980  0.71977172  0.27018090    -0.02400
Br1457     Br  0.80189862  0.67056546  0.27700789    -0.01000
Br1458     Br  0.87223977  0.68031025  0.28497808    -0.01000
Br1459     Br  0.79233787  0.83147045  0.24517595    -0.01000
Br1460     Br  0.86312127  0.83558644  0.24266919    -0.01000
C1461       C  0.34897164  0.99808210  0.23897798    -0.02100
C1462       C  0.36501973  0.96587597  0.24920692     0.07600
C1463       C  0.35156763  0.44052714  0.26552464    -0.02200
C1464       C  0.32123039  0.43947616  0.26373011    -0.02200
C1465       C  0.30353909  0.96495069  0.25010228     0.07700
C1466       C  0.31851408  0.99806750  0.24074683    -0.02400
Br1467     Br  0.29788298  0.04461237  0.23183999    -0.01000
Br1468     Br  0.36772849  0.04244918  0.22149942    -0.01000
Br1469     Br  0.30262518  0.39338353  0.27744641    -0.01000
Br1470     Br  0.37191346  0.40196966  0.29060980    -0.01000
C1471       C  0.17803799  0.43309665  0.28178963    -0.02100
C1472       C  0.20759270  0.43593199  0.29015666     0.07600
C1473       C  0.21484781  0.44206772  0.32375383    -0.02200
C1474       C  0.19337415  0.45456218  0.34597269    -0.02200
C1475       C  0.16508146  0.46148138  0.33449071     0.07700
C1476       C  0.15701481  0.44881126  0.30289660    -0.02400
Br1477     Br  0.11793187  0.45545197  0.28774832    -0.01000
Br1478     Br  0.16683959  0.41035238  0.24025424    -0.01000
Br1479     Br  0.20330051  0.46492839  0.39146488    -0.01000
Br1480     Br  0.25373298  0.43499255  0.33973290    -0.01000
C1481       C  0.18273791  0.74772395  0.08338467    -0.02100
C1482       C  0.15449060  0.73954742  0.07227891     0.07600
C1483       C  0.14533517  0.75407458  0.04144956    -0.02200
C1484       C  0.16549727  0.77129777  0.02018932    -0.02200
C1485       C  0.19526932  0.77065748  0.02813049     0.07700
C1486       C  0.20326067  0.76274912  0.06131125    -0.02400
Br1487     Br  0.24217763  0.77029270  0.07697669    -0.01000
Br1488     Br  0.19363184  0.73825728  0.12899081    -0.01000
Br1489     Br  0.15268656  0.79380417  0.97902288    -0.01000
Br1490     Br  0.10628962  0.74702093  0.02644229    -0.01000
C1491       C  0.17792308  0.56465427  0.20699342    -0.02100
C1492       C  0.16578871  0.55659254  0.17564365     0.07600
C1493       C  0.17941259  0.52969569  0.15482353    -0.02200
C1494       C  0.20346289  0.50883900  0.16652876    -0.02200
C1495       C  0.21497457  0.51643885  0.19810181     0.07700
C1496       C  0.20301666  0.54576062  0.21744587    -0.02400
Br1497     Br  0.22007957  0.55811790  0.25984792    -0.01000
Br1498     Br  0.16046160  0.60155045  0.23629817    -0.01000
Br1499     Br  0.21992569  0.46857882  0.14039013    -0.01000
Br1500     Br  0.16397986  0.51946235  0.11137851    -0.01000
C1501       C  0.22117859  0.67174251  0.20134632    -0.02100
C1502       C  0.19802648  0.69291069  0.21657111     0.07600
C1503       C  0.20512751  0.71684595  0.24371157    -0.02200
C1504       C  0.23437320  0.72257324  0.25261166    -0.02200
C1505       C  0.25668003  0.70249040  0.23646704     0.07700
C1506       C  0.24981632  0.67602781  0.21208998    -0.02400
Br1507     Br  0.28066681  0.64559578  0.19310192    -0.01000
Br1508     Br  0.21629424  0.63665723  0.16470893    -0.01000
Br1509     Br  0.24415271  0.75952204  0.28574798    -0.01000
Br1510     Br  0.17564009  0.74187709  0.26971841    -0.01000
C1511       C  0.74223608  0.68125459  0.04362336    -0.02100
C1512       C  0.75351272  0.70763758  0.02129763     0.07600
C1513       C  0.73469295  0.73339131  0.00523561    -0.02200
C1514       C  0.70463859  0.73267329  0.01181244    -0.02200
C1515       C  0.69351063  0.70689338  0.03519486     0.07700
C1516       C  0.71289606  0.68231185  0.05190527    -0.02400
Br1517     Br  0.70106206  0.65488299  0.09067967    -0.01000
Br1518     Br  0.76746098  0.64378535  0.06351442    -0.01000
Br1519     Br  0.67902140  0.76764874  0.98978871    -0.01000
Br1520     Br  0.75025340  0.77036170  0.97525637    -0.01000
C1521       C  0.83886152  0.71598444  0.43083312    -0.02100
C1522       C  0.84769163  0.70460142  0.46284456     0.07600
C1523       C  0.87724968  0.69640028  0.46797297    -0.02200
C1524       C  0.89825029  0.70946415  0.44565503    -0.02200
C1525       C  0.88967821  0.72573694  0.41519932     0.07700
C1526       C  0.85982859  0.72505124  0.40667856    -0.02400
Br1527     Br  0.84690139  0.73615031  0.36199239    -0.01000
Br1528     Br  0.79847563  0.72030099  0.41959153    -0.01000
Br1529     Br  0.93810454  0.70828754  0.45952226    -0.01000
Br1530     Br  0.88904781  0.66595020  0.50524842    -0.01000
C1531       C  0.89268523  0.02189161  0.17686570    -0.02100
C1532       C  0.88537695  0.99620948  0.15184159     0.07600
C1533       C  0.85606882  0.98976582  0.14481327    -0.02200
C1534       C  0.83471657  0.00140437  0.16749114    -0.02200
C1535       C  0.84282709  0.02140984  0.19609489     0.07700
C1536       C  0.87084597  0.03644867  0.19756530    -0.02400
Br1537     Br  0.87881703  0.07592548  0.22884486    -0.01000
Br1538     Br  0.93232074  0.03517429  0.18396594    -0.01000
Br1539     Br  0.79521264  0.98759793  0.16028418    -0.01000
Br1540     Br  0.84536202  0.96457264  0.10450549    -0.01000
C1541       C  0.85535853  0.81550540  0.08943926    -0.02100
C1542       C  0.88451988  0.80392689  0.09164187     0.07600
C1543       C  0.89130462  0.76516884  0.09175588    -0.02200
C1544       C  0.86939893  0.73884128  0.08589017    -0.02200
C1545       C  0.84187329  0.75132435  0.07580089     0.07700
C1546       C  0.83399845  0.78924991  0.08117720    -0.02400
Br1547     Br  0.79473480  0.80606928  0.07459534    -0.01000
Br1548     Br  0.84488832  0.86783756  0.09364078    -0.01000
Br1549     Br  0.87622866  0.68571234  0.09214373    -0.01000
Br1550     Br  0.93047901  0.74830240  0.09818920    -0.01000
C1551       C  0.81066255  0.91976096  0.01119567    -0.02100
C1552       C  0.79803482  0.95556863  0.01702708     0.07600
C1553       C  0.81706161  0.48942744  0.01813313    -0.02200
C1554       C  0.84741267  0.48501809  0.01729240    -0.02200
C1555       C  0.85945394  0.94662392  0.01537048     0.07700
C1556       C  0.84096478  0.91538346  0.00944314    -0.02400
Br1557     Br  0.85603250  0.86573340  0.99826083    -0.01000
Br1558     Br  0.78677065  0.87547498  0.00793932    -0.01000
Br1559     Br  0.87049900  0.53027195  0.01943274    -0.01000
Br1560     Br  0.80076578  0.53982449  0.02044054    -0.01000
C1561       C  0.04349641  0.58926920  0.57752267     0.80000
N1562       N  0.05409379  0.59188106  0.54591132    -0.78300
C1563       C  0.04596179  0.56679110  0.52202597     0.82400
N1564       N  0.02751706  0.53876744  0.53001396    -0.78300
C1565       C  0.01742994  0.53480807  0.56142281     0.82500
N1566       N  0.02569302  0.55985343  0.58536346    -0.80000
Zn1567     Zn  0.99346648  0.91668126  0.57689611     1.49700
Zn1568     Zn  0.93788398  0.96930304  0.56746075     1.49400
Zn1569     Zn  0.93688011  0.88454026  0.54385744     1.49100
Zn1570     Zn  0.93616611  0.90120272  0.61901117     1.49500
O1571       O  0.95171614  0.91840001  0.57737464    -1.84400
O1572       O  0.00860252  0.97188593  0.58085911    -0.75000
O1573       O  0.90560803  0.96862253  0.53302077    -0.74800
O1574       O  0.96574383  0.87801234  0.50596883    -0.74300
O1575       O  0.97168638  0.00432642  0.55877246    -0.75000
O1576       O  0.00553676  0.90059467  0.52948251    -0.74600
O1577       O  0.89968141  0.90750071  0.52751845    -0.75200
O1578       O  0.90751773  0.85972647  0.61083190    -0.74600
O1579       O  0.91593729  0.99093479  0.60589139    -0.75400
O1580       O  0.92326144  0.83528973  0.56332445    -0.74700
O1581       O  0.91346305  0.94313165  0.64169658    -0.75200
O1582       O  0.96798400  0.87733162  0.64645604    -0.75100
O1583       O  0.00727601  0.87846401  0.61430080    -0.74900
C1584       C  0.99787824  0.00240922  0.56857494     0.76900
C1585       C  0.88996098  0.94092505  0.52431450     0.77400
C1586       C  0.99227646  0.88720950  0.50427560     0.76300
C1587       C  0.90659625  0.83437419  0.58851373     0.76700
C1588       C  0.90657475  0.97652518  0.63262640     0.77800
C1589       C  0.99399013  0.86715550  0.64052845     0.76900
C1590       C  0.78376957  0.71420882  0.52001871     0.80000
N1591       N  0.80155899  0.70121256  0.99413284    -0.78300
C1592       C  0.83087604  0.70430959  0.99531511     0.82400
N1593       N  0.84302673  0.71906087  0.02291315    -0.78300
C1594       C  0.82603972  0.73251265  0.54781677     0.82500
N1595       N  0.79709529  0.72788783  0.54753382    -0.80000
C1596       C  0.00749790  0.84060540  0.66497650     0.80000
N1597       N  0.02718764  0.81339328  0.65566394    -0.78300
C1598       C  0.03608238  0.78664675  0.67819734     0.82400
N1599       N  0.02467383  0.78690362  0.70930660    -0.78300
C1600       C  0.00505184  0.81336033  0.71873350     0.82500
N1601       N  0.99634291  0.83981764  0.69639678    -0.80000
Zn1602     Zn  0.10009419  0.69995681  0.70197854     1.49700
Zn1603     Zn  0.08174407  0.61922720  0.67324157     1.49400
Zn1604     Zn  0.08063877  0.69287426  0.62535384     1.49100
Zn1605     Zn  0.13826760  0.65680440  0.64766595     1.49500
O1606       O  0.09930792  0.66773644  0.66269121    -1.84400
O1607       O  0.07790961  0.67455265  0.73910821    -0.75000
O1608       O  0.05823692  0.60129849  0.63321578    -0.74800
O1609       O  0.05374172  0.73558968  0.64368489    -0.74300
O1610       O  0.06034050  0.62106285  0.71865899    -0.75000
O1611       O  0.07577857  0.74726797  0.69202849    -0.74600
O1612       O  0.06199541  0.64906942  0.59705613    -0.75200
O1613       O  0.15040161  0.68632863  0.60805687    -0.74600
O1614       O  0.11428356  0.58137135  0.67895308    -0.75400
O1615       O  0.11160460  0.72158611  0.59896549    -0.74700
O1616       O  0.14808434  0.60181295  0.64451573    -0.75200
O1617       O  0.16533425  0.67469726  0.68159795    -0.75100
O1618       O  0.14217304  0.70872572  0.71915395    -0.74900
C1619       C  0.06279964  0.64490758  0.74236433     0.76900
C1620       C  0.05463113  0.61495460  0.60405697     0.77400
C1621       C  0.05674416  0.75556077  0.67006364     0.76300
C1622       C  0.13840674  0.71477361  0.59454351     0.76700
C1623       C  0.13901224  0.57774388  0.66539024     0.77800
C1624       C  0.16563054  0.69427464  0.70786767     0.76900
C1625       C  0.26772675  0.95911175  0.74501166     0.80000
N1626       N  0.25303266  0.93870560  0.76822628    -0.78300
C1627       C  0.22418889  0.43445768  0.76540842     0.82400
N1628       N  0.21007917  0.45221352  0.74065517    -0.78300
C1629       C  0.22358824  0.47468616  0.71887924     0.82500
N1630       N  0.25278177  0.47775232  0.72042343    -0.80000
C1631       C  0.04623985  0.61256206  0.82844568     0.80000
N1632       N  0.05704414  0.61344183  0.79682258    -0.78300
C1633       C  0.04769031  0.63957807  0.77446673     0.82400
N1634       N  0.02794198  0.66572117  0.78419923    -0.78300
C1635       C  0.01697587  0.66600480  0.81554397     0.82500
N1636       N  0.02636423  0.63945559  0.83798466    -0.80000
Zn1637     Zn  0.97100708  0.75990735  0.86761960     1.49700
Zn1638     Zn  0.95336423  0.75237871  0.79120050     1.49400
Zn1639     Zn  0.91542061  0.79766348  0.84217201     1.49100
Zn1640     Zn  0.96910070  0.83500612  0.81864965     1.49500
O1641       O  0.95399037  0.78517646  0.82944339    -1.84400
O1642       O  0.99806688  0.71613697  0.85066369    -0.75000
O1643       O  0.91143353  0.74177898  0.77597385    -0.74800
O1644       O  0.90057748  0.76660658  0.87812099    -0.74300
O1645       O  0.97778961  0.70567395  0.80120196    -0.75000
O1646       O  0.93860107  0.73397126  0.89460985    -0.74600
O1647       O  0.88906479  0.78637531  0.80531434    -0.75200
O1648       O  0.93513650  0.87250305  0.81364523    -0.74600
O1649       O  0.97519400  0.77791450  0.75398458    -0.75400
O1650       O  0.90948797  0.85081681  0.85534685    -0.74700
O1651       O  0.99067684  0.83308225  0.77351438    -0.75200
O1652       O  0.99252548  0.85251898  0.85918317    -0.75100
O1653       O  0.98971339  0.80399489  0.89491597    -0.74900
C1654       C  0.99604861  0.69681435  0.82376698     0.76900
C1655       C  0.88874420  0.76094417  0.78317599     0.77400
C1656       C  0.91151105  0.74081561  0.89582114     0.76300
C1657       C  0.91361304  0.87553568  0.83329967     0.76700
C1658       C  0.98945133  0.80826607  0.75044155     0.77800
C1659       C  0.99661545  0.83828569  0.88814438     0.76900
C1660       C  0.78717570  0.00249647  0.76332865     0.80000
N1661       N  0.80411183  0.98632297  0.78701557    -0.78300
C1662       C  0.83284043  0.98187040  0.78213335     0.82400
N1663       N  0.84455874  0.99433417  0.75347535    -0.78300
C1664       C  0.82825734  0.01127883  0.72974914     0.82500
N1665       N  0.79923849  0.01505337  0.73447253    -0.80000
C1666       C  0.00788903  0.86339857  0.91494341     0.80000
N1667       N  0.02587226  0.89267347  0.90761165    -0.78300
C1668       C  0.03471870  0.91674245  0.93205572     0.82400
N1669       N  0.02480327  0.91190120  0.96348935    -0.78300
C1670       C  0.00607785  0.88403110  0.97101141     0.82500
N1671       N  0.99751867  0.85981273  0.94661824    -0.80000
Zn1672     Zn  0.05943082  0.53460568  0.91595983     1.49700
Zn1673     Zn  0.11437286  0.98104695  0.92458708     1.49400
Zn1674     Zn  0.11808053  0.55158693  0.87442272     1.49100
Zn1675     Zn  0.11485508  0.56509056  0.94805689     1.49500
O1676       O  0.10093303  0.53168708  0.91469616    -1.84400
O1677       O  0.04348287  0.97941031  0.91235390    -0.75000
O1678       O  0.13374876  0.45932400  0.88404604    -0.74800
O1679       O  0.08648263  0.57749147  0.84769223    -0.74300
O1680       O  0.08014547  0.94702022  0.93535245    -0.75000
O1681       O  0.04620433  0.57292701  0.87808864    -0.74600
O1682       O  0.13911552  0.50850930  0.84999238    -0.75200
O1683       O  0.12232665  0.61570624  0.92851125    -0.74600
O1684       O  0.14958973  0.98198978  0.95633992    -0.75400
O1685       O  0.14769145  0.59216716  0.88710979    -0.74700
O1686       O  0.15345425  0.54464253  0.96158776    -0.75200
O1687       O  0.08819414  0.57012451  0.98729305    -0.75100
O1688       O  0.04744210  0.55133817  0.96368358    -0.74900
C1689       C  0.05394430  0.94907295  0.92535408     0.76900
C1690       C  0.14361548  0.47387067  0.85759014     0.77400
C1691       C  0.05998766  0.58603587  0.85281369     0.76300
C1692       C  0.14438328  0.61683458  0.90992769     0.76700
C1693       C  0.16363878  0.01143906  0.96454692     0.77800
C1694       C  0.06139608  0.56311913  0.98907548     0.76900
C1695       C  0.26406767  0.75202757  0.98238822     0.80000
N1696       N  0.24701230  0.77110719  0.50851731    -0.78300
C1697       C  0.21798465  0.76883609  0.50433198     0.82400
N1698       N  0.20799691  0.74897809  0.47829599    -0.78300
C1699       C  0.22468893  0.72644441  0.95321525     0.82500
N1700       N  0.25359669  0.73004714  0.95737493    -0.80000
C1701       C  0.50607951  0.85003693  0.59279839     0.80000
N1702       N  0.52484426  0.82154901  0.60163467    -0.78300
C1703       C  0.53169828  0.79379021  0.57914338     0.82400
N1704       N  0.51972088  0.79462823  0.54852532    -0.78300
C1705       C  0.50155434  0.82275218  0.53928482     0.82500
N1706       N  0.49439499  0.85001258  0.56160859    -0.80000
Zn1707     Zn  0.61204814  0.72962167  0.58621970     1.49700
Zn1708     Zn  0.61255237  0.64694165  0.55810387     1.47000
Zn1709     Zn  0.61652144  0.65701794  0.63230308     1.49100
Zn1710     Zn  0.55657805  0.67504531  0.59281898     1.49500
O1711       O  0.59819341  0.67831298  0.59325464    -1.84400
O1712       O  0.64675313  0.73055259  0.55421148    -0.75000
O1713       O  0.62233944  0.59523852  0.57446999    -0.74800
O1714       O  0.63839606  0.69759259  0.65711726    -0.74300
O1715       O  0.65035221  0.66910759  0.54460539    -0.75000
O1716       O  0.63108143  0.74935375  0.62678665    -0.74600
O1717       O  0.64538195  0.61600811  0.61857942    -0.75200
O1718       O  0.54505650  0.63731215  0.63214966    -0.74600
O1719       O  0.58515060  0.64285058  0.51970163    -0.75400
O1720       O  0.58632342  0.63264682  0.66071142    -0.74700
O1721       O  0.54386166  0.65818919  0.54471291    -0.75200
O1722       O  0.54086765  0.73041885  0.59685133    -0.75100
O1723       O  0.57786359  0.76470655  0.57791925    -0.74900
C1724       C  0.66126205  0.70183143  0.54437623     0.76900
C1725       C  0.64319795  0.59260952  0.59470361     0.77400
C1726       C  0.64210454  0.73268488  0.65164270     0.76300
C1727       C  0.55975443  0.62465059  0.65708431     0.76700
C1728       C  0.55798438  0.64799670  0.51866586     0.77800
C1729       C  0.55139558  0.76178314  0.58649227     0.76900
C1730       C  0.76625828  0.45950145  0.52580512     0.80000
N1731       N  0.74671544  0.94184003  0.00295066    -0.78300
C1732       C  0.71861341  0.44752904  0.00801216     0.82400
N1733       N  0.70974024  0.46978540  0.03313948    -0.78300
C1734       C  0.72806412  0.48559485  0.55741776     0.82500
N1735       N  0.75673539  0.48240945  0.55090051    -0.80000
C1736       C  0.54733972  0.59852222  0.68240594     0.80000
N1737       N  0.55943084  0.59742545  0.71345806    -0.78300
C1738       C  0.55203170  0.57014900  0.73568287     0.82400
N1739       N  0.53336497  0.54307215  0.72628873    -0.78300
C1740       C  0.52110426  0.54346953  0.69576127     0.82500
N1741       N  0.52806095  0.57125598  0.67361878    -0.80000
Zn1742     Zn  0.43762898  0.89970682  0.71531636     1.49700
Zn1743     Zn  0.49479693  0.92642734  0.68186302     1.49400
Zn1744     Zn  0.43664781  0.91315990  0.63974983     1.49100
Zn1745     Zn  0.43955676  0.98349822  0.68812979     1.49500
O1746       O  0.45299572  0.93157183  0.68074409    -1.84400
O1747       O  0.46587611  0.89190775  0.75346890    -0.75000
O1748       O  0.50748006  0.88800468  0.64358446    -0.74800
O1749       O  0.40685187  0.87358991  0.64961514    -0.74300
O1750       O  0.50695631  0.90930994  0.72958054    -0.75000
O1751       O  0.42332033  0.85056981  0.69733786    -0.74600
O1752       O  0.46754949  0.88742197  0.61259766    -0.75200
O1753       O  0.41711389  0.00349766  0.64873499    -0.74600
O1754       O  0.51137144  0.98062396  0.67864754    -0.75400
O1755       O  0.41491167  0.95401606  0.61491663    -0.74700
O1756       O  0.47426974  0.01719343  0.69499788    -0.75200
O1757       O  0.40852162  0.98587726  0.72445184    -0.75100
O1758       O  0.40132127  0.92484841  0.73112501    -0.74900
C1759       C  0.49292649  0.89783617  0.75507696     0.76900
C1760       C  0.49355233  0.87687921  0.61773988     0.77400
C1761       C  0.40615844  0.84917159  0.67274342     0.76300
C1762       C  0.40801106  0.98782778  0.62241752     0.76700
C1763       C  0.50098545  0.01260880  0.68809036     0.77800
C1764       C  0.39255205  0.95879205  0.73398114     0.76900
C1765       C  0.28450863  0.72065256  0.74174400     0.80000
N1766       N  0.29786196  0.73860566  0.71616656    -0.78300
C1767       C  0.32698718  0.74249976  0.71621639     0.82400
N1768       N  0.34244299  0.72855783  0.74195151    -0.78300
C1769       C  0.32966545  0.71026849  0.76747093     0.82500
N1770       N  0.30048834  0.70636950  0.76730771    -0.80000
C1771       C  0.54135398  0.62179582  0.93085686     0.80000
N1772       N  0.55173665  0.62057970  0.96263040    -0.78300
C1773       C  0.54271237  0.64624739  0.98584294     0.82400
N1774       N  0.52330532  0.67329993  0.97688962    -0.78300
C1775       C  0.51345545  0.67596264  0.94511857     0.82500
N1776       N  0.52294993  0.65053056  0.92196470    -0.80000
Zn1777     Zn  0.44989143  0.76351462  0.96667212     1.49700
Zn1778     Zn  0.46696368  0.84494821  0.93883020     1.49400
Zn1779     Zn  0.46917905  0.76921659  0.89085218     1.49100
Zn1780     Zn  0.41365227  0.80864518  0.91386993     1.49500
O1781       O  0.45163681  0.79551588  0.92808071    -1.84400
O1782       O  0.47016859  0.78955047  0.00422368    -0.75000
O1783       O  0.49093437  0.86134620  0.89854109    -0.74800
O1784       O  0.49597242  0.72637379  0.90958665    -0.74300
O1785       O  0.48791937  0.84324358  0.98404635    -0.75000
O1786       O  0.47472647  0.71686093  0.95873078    -0.74600
O1787       O  0.48830643  0.81273143  0.86289996    -0.75200
O1788       O  0.39974910  0.77719986  0.87763281    -0.74600
O1789       O  0.43336420  0.88276059  0.94359807    -0.75400
O1790       O  0.43708207  0.74124559  0.86488486    -0.74700
O1791       O  0.40827925  0.86223187  0.90113458    -0.75200
O1792       O  0.38611074  0.79703927  0.94991130    -0.75100
O1793       O  0.40786988  0.75285196  0.98032186    -0.74900
C1794       C  0.48519697  0.81921091  0.00757570     0.76900
C1795       C  0.49540743  0.84696910  0.86975607     0.77400
C1796       C  0.49340214  0.70759937  0.93675739     0.76300
C1797       C  0.41018972  0.74894788  0.86260648     0.76700
C1798       C  0.41217350  0.88645346  0.92365026     0.77800
C1799       C  0.38530940  0.77169467  0.97219548     0.76900
C1800       C  0.28547845  0.00904778  0.99745570     0.80000
N1801       N  0.30222394  0.99425103  0.97290884    -0.78300
C1802       C  0.33120994  0.99157443  0.97638162     0.82400
N1803       N  0.34613557  0.00700477  0.49834603    -0.78300
C1804       C  0.33019840  0.02323176  0.52279668     0.82500
N1805       N  0.30097638  0.02541792  0.51936382    -0.80000
C1806       C  0.50782337  0.87185442  0.84351332     0.80000
N1807       N  0.52672951  0.89964157  0.85194247    -0.78300
C1808       C  0.53705732  0.92376879  0.82841618     0.82400
N1809       N  0.52746174  0.92086295  0.79655575    -0.78300
C1810       C  0.50750551  0.89467882  0.78798104     0.82500
N1811       N  0.49774694  0.87023160  0.81165231    -0.80000
Zn1812     Zn  0.63615250  0.55097878  0.86833660     1.49700
Zn1813     Zn  0.60262863  0.50929050  0.80981053     1.49400
Zn1814     Zn  0.57852840  0.51565595  0.88541477     1.49100
Zn1815     Zn  0.58348770  0.58976084  0.83755467     1.49500
O1816       O  0.59894661  0.54036554  0.84956634    -1.84400
O1817       O  0.66479638  0.53518430  0.83589792    -0.75000
O1818       O  0.57747847  0.96234394  0.81662698    -0.74800
O1819       O  0.60773533  0.48534928  0.91449015    -0.74300
O1820       O  0.64611209  0.00053200  0.79594669    -0.75000
O1821       O  0.64698151  0.51930224  0.90672196    -0.74600
O1822       O  0.55299525  0.97432775  0.86366389    -0.75200
O1823       O  0.55926000  0.60930267  0.87651546    -0.74600
O1824       O  0.58255836  0.53571784  0.77147892    -0.75400
O1825       O  0.55899967  0.56069324  0.91224198    -0.74700
O1826       O  0.56345458  0.58890730  0.79157184    -0.75200
O1827       O  0.61783133  0.62402355  0.83235771    -0.75100
O1828       O  0.64476231  0.60559877  0.87482277    -0.74900
C1829       C  0.66824654  0.01539986  0.80951926     0.76900
C1830       C  0.55713154  0.95476922  0.83712859     0.77400
C1831       C  0.63445444  0.49136920  0.91984064     0.76300
C1832       C  0.55334980  0.59551282  0.90510309     0.76700
C1833       C  0.56715475  0.56539279  0.76779130     0.77800
C1834       C  0.64037901  0.62723253  0.85016446     0.76900
C1835       C  0.76716500  0.74679195  0.76945079     0.80000
N1836       N  0.75043873  0.76477131  0.74645761    -0.78300
C1837       C  0.72125230  0.76415070  0.74850302     0.82400
N1838       N  0.70901949  0.74424683  0.77326584    -0.78300
C1839       C  0.72491388  0.72537643  0.79592673     0.82500
N1840       N  0.75419717  0.72623103  0.79392896    -0.80000
C1841       C  0.67614589  0.67964652  0.85891876    -0.02100
C1842       C  0.66392137  0.65164311  0.83852514     0.07600
C1843       C  0.67569823  0.64455334  0.80676108    -0.02200
C1844       C  0.69911605  0.66557083  0.79536563    -0.02200
C1845       C  0.70958137  0.69586042  0.81430368     0.07700
C1846       C  0.69830964  0.70271250  0.84626062    -0.02400
Br1847     Br  0.71193969  0.74510982  0.87145122    -0.01000
Br1848     Br  0.66125207  0.68807632  0.90303727    -0.01000
Br1849     Br  0.71568996  0.65464259  0.75226584    -0.01000
Br1850     Br  0.65982305  0.60619095  0.77810182    -0.01000
C1851       C  0.36052622  0.90789117  0.92844129    -0.02100
C1852       C  0.39030765  0.91671609  0.92859703     0.07600
C1853       C  0.39878546  0.95375136  0.93611805    -0.02200
C1854       C  0.37817159  0.98030313  0.94708857    -0.02200
C1855       C  0.34936733  0.96938104  0.95284211     0.07700
C1856       C  0.34015482  0.93392572  0.94098558    -0.02400
Br1857     Br  0.30016320  0.91896327  0.94352442    -0.01000
Br1858     Br  0.34700557  0.85916985  0.91371112    -0.01000
Br1859     Br  0.38914943  0.03217052  0.95254659    -0.01000
Br1860     Br  0.43855905  0.96835594  0.93106148    -0.01000
C1861       C  0.39824631  0.70557937  0.81414452    -0.02100
C1862       C  0.38963838  0.72565109  0.84286044     0.07600
C1863       C  0.35985583  0.72547433  0.85173444    -0.02200
C1864       C  0.33897592  0.71365764  0.82872923    -0.02200
C1865       C  0.34775934  0.70161483  0.79701740     0.07700
C1866       C  0.37709643  0.69242539  0.79199843    -0.02400
Br1867     Br  0.38779864  0.66145198  0.75462920    -0.01000
Br1868     Br  0.43835194  0.69797187  0.80312129    -0.01000
Br1869     Br  0.29862030  0.71514135  0.84072710    -0.01000
Br1870     Br  0.34674169  0.74150019  0.89515263    -0.01000
C1871       C  0.37316445  0.04546431  0.55393342    -0.02100
C1872       C  0.34503185  0.03049025  0.55476354     0.07600
C1873       C  0.33616496  0.01093522  0.58338431    -0.02200
C1874       C  0.35691184  0.99859992  0.60643487    -0.02200
C1875       C  0.38620880  0.00746228  0.60193084     0.07700
C1876       C  0.39398691  0.03341235  0.57719980    -0.02400
Br1877     Br  0.43320713  0.05040507  0.57412689    -0.01000
Br1878     Br  0.38270110  0.08257630  0.52093210    -0.01000
Br1879     Br  0.34535372  0.96758318  0.64313625    -0.01000
Br1880     Br  0.29614165  0.99968822  0.59086289    -0.01000
C1881       C  0.38910326  0.78273078  0.66901251    -0.02100
C1882       C  0.38298025  0.82122641  0.67336235     0.07600
C1883       C  0.35515828  0.83289816  0.68311945    -0.02200
C1884       C  0.33442435  0.80615817  0.69199798    -0.02200
C1885       C  0.34200838  0.76758577  0.69268108     0.07700
C1886       C  0.36864201  0.75581246  0.67881526    -0.02400
Br1887     Br  0.37748634  0.70290431  0.67440329    -0.01000
Br1888     Br  0.42589290  0.76741660  0.65092206    -0.01000
Br1889     Br  0.29699859  0.82338381  0.70677684    -0.01000
Br1890     Br  0.34649806  0.88559873  0.68876094    -0.01000
C1891       C  0.70166568  0.44032105  0.94872212    -0.02100
C1892       C  0.69597412  0.43767067  0.98307019     0.07600
C1893       C  0.66672859  0.43932178  0.99357103    -0.02200
C1894       C  0.64547567  0.45531979  0.97271669    -0.02200
C1895       C  0.65272349  0.46528873  0.93997178     0.07700
C1896       C  0.67986227  0.45365945  0.92719595    -0.02400
Br1897     Br  0.68741229  0.45688505  0.88012278    -0.01000
Br1898     Br  0.73907914  0.42735954  0.93080677    -0.01000
Br1899     Br  0.60768130  0.96833211  0.99100948    -0.01000
Br1900     Br  0.65508551  0.92140914  0.03824111    -0.01000
C1901       C  0.69046885  0.75899818  0.66361755    -0.02100
C1902       C  0.66155117  0.75392468  0.67326201     0.07600
C1903       C  0.65207387  0.76750666  0.70409064    -0.02200
C1904       C  0.67240846  0.78015515  0.72725542    -0.02200
C1905       C  0.70223388  0.77577553  0.72055272     0.07700
C1906       C  0.71104658  0.76987063  0.68730553    -0.02400
Br1907     Br  0.75081604  0.77474130  0.67378160    -0.01000
Br1908     Br  0.70207182  0.74915463  0.61844590    -0.01000
Br1909     Br  0.65961453  0.80154323  0.76885762    -0.01000
Br1910     Br  0.61157339  0.76726486  0.71476122    -0.01000
C1911       C  0.67976280  0.56653588  0.55523560    -0.02100
C1912       C  0.66721613  0.56601180  0.58730973     0.07600
C1913       C  0.67961001  0.54279757  0.61215380    -0.02200
C1914       C  0.70285165  0.51837432  0.60406985    -0.02200
C1915       C  0.71542862  0.51975496  0.57226874     0.07700
C1916       C  0.70522924  0.54635757  0.54900986    -0.02400
Br1917     Br  0.72371128  0.55065191  0.50600496    -0.01000
Br1918     Br  0.66164504  0.59190938  0.51808173    -0.01000
Br1919     Br  0.71621923  0.48106944  0.63530948    -0.01000
Br1920     Br  0.66261639  0.54090958  0.65582247    -0.01000
C1921       C  0.34437626  0.72754270  0.98279215    -0.02100
C1922       C  0.35650234  0.76362227  0.98637002     0.07600
C1923       C  0.33854308  0.79428527  0.99529884    -0.02200
C1924       C  0.30834200  0.79043910  0.99539183    -0.02200
C1925       C  0.29583501  0.75523957  0.98755715     0.07700
C1926       C  0.31415893  0.72326259  0.98375185    -0.02400
Br1927     Br  0.29907185  0.67499081  0.49137034    -0.01000
Br1928     Br  0.36935556  0.68482555  0.47843037    -0.01000
Br1929     Br  0.28479166  0.83469964  0.00361886    -0.01000
Br1930     Br  0.35572925  0.84212269  0.00646939    -0.01000
C1931       C  0.17730019  0.64480800  0.95218645    -0.02100
C1932       C  0.16799021  0.64315092  0.91867593     0.07600
C1933       C  0.18260967  0.66492634  0.89448731    -0.02200
C1934       C  0.20364768  0.69128979  0.90460820    -0.02200
C1935       C  0.21243822  0.69242038  0.93801985     0.07700
C1936       C  0.20130283  0.66616651  0.96068868    -0.02400
Br1937     Br  0.21745579  0.66638021  0.50900662    -0.01000
Br1938     Br  0.15664040  0.62130725  0.98830134    -0.01000
Br1939     Br  0.21956097  0.72678248  0.87356430    -0.01000
Br1940     Br  0.17226266  0.66132821  0.84827271    -0.01000
C1941       C  0.24504352  0.53568625  0.96469998    -0.02100
C1942       C  0.25390658  0.01120880  0.99203157     0.07600
C1943       C  0.23473933  0.98656233  0.00843145    -0.02200
C1944       C  0.20513510  0.98606701  0.99974546    -0.02200
C1945       C  0.19474405  0.00948872  0.97396242     0.07700
C1946       C  0.21595837  0.53354721  0.95524900    -0.02400
Br1947     Br  0.20434212  0.55881612  0.91504661    -0.01000
Br1948     Br  0.26970484  0.57726197  0.44099468    -0.01000
Br1949     Br  0.17907224  0.95312814  0.02287267    -0.01000
Br1950     Br  0.24932786  0.95164945  0.04110040    -0.01000
C1951       C  0.74908005  0.03446230  0.79575210    -0.02100
C1952       C  0.75626306  0.00848676  0.77092080     0.07600
C1953       C  0.73482099  0.98502101  0.75768332    -0.02200
C1954       C  0.70593454  0.98780411  0.76905534    -0.02200
C1955       C  0.69851062  0.01288095  0.79540848     0.07700
C1956       C  0.72087699  0.53648563  0.80908542    -0.02400
Br1957     Br  0.71589759  0.57102917  0.84620410    -0.01000
Br1958     Br  0.77901209  0.56714000  0.81284684    -0.01000
Br1959     Br  0.67769374  0.95533336  0.74887973    -0.01000
Br1960     Br  0.74566792  0.94711545  0.72555320    -0.01000
C1961       C  0.90003290  0.94312938  0.82280986    -0.02100
C1962       C  0.89165422  0.90567307  0.82860392     0.07600
C1963       C  0.86197455  0.89644778  0.82741577    -0.02200
C1964       C  0.84174574  0.92285369  0.81527902    -0.02200
C1965       C  0.85099350  0.95883196  0.80486065     0.07700
C1966       C  0.87966245  0.96976504  0.81140050    -0.02400
Br1967     Br  0.89091101  0.02153790  0.80585688    -0.01000
Br1968     Br  0.93919173  0.95814457  0.83159475    -0.01000
Br1969     Br  0.80192275  0.90784485  0.81084906    -0.01000
Br1970     Br  0.84843905  0.84696171  0.84002140    -0.01000
C1971       C  0.84692621  0.71827805  0.77266421    -0.02100
C1972       C  0.86021389  0.75349952  0.76809293     0.07600
C1973       C  0.84324875  0.78474825  0.75831470    -0.02200
C1974       C  0.81297216  0.78266289  0.75857026    -0.02200
C1975       C  0.79925424  0.74824761  0.76655370     0.07700
C1976       C  0.81655915  0.71551078  0.77151513    -0.02400
Br1977     Br  0.79916921  0.66652988  0.77642837    -0.01000
Br1978     Br  0.87013482  0.67431106  0.78285875    -0.01000
Br1979     Br  0.79104931  0.82859426  0.75133326    -0.01000
Br1980     Br  0.86194003  0.83111034  0.74558278    -0.01000
C1981       C  0.34511665  0.99554552  0.73200782    -0.02100
C1982       C  0.36195309  0.96546788  0.74511498     0.07600
C1983       C  0.34811691  0.43729534  0.76319176    -0.02200
C1984       C  0.31779913  0.43411457  0.76223075    -0.02200
C1985       C  0.30019453  0.96269427  0.74716889     0.07700
C1986       C  0.31462205  0.99468803  0.73389891    -0.02400
Br1987     Br  0.29352016  0.03872589  0.71860315    -0.01000
Br1988     Br  0.36305090  0.03804736  0.71014246    -0.01000
Br1989     Br  0.30159592  0.38782172  0.77929010    -0.01000
Br1990     Br  0.37031423  0.40220334  0.79007297    -0.01000
C1991       C  0.17631405  0.41686634  0.78734104    -0.02100
C1992       C  0.20595397  0.42269591  0.79399549     0.07600
C1993       C  0.21384825  0.43313163  0.82654734    -0.02200
C1994       C  0.19254812  0.44679221  0.84845147    -0.02200
C1995       C  0.16381603  0.45099438  0.83756741     0.07700
C1996       C  0.15525432  0.43341505  0.80802718    -0.02400
Br1997     Br  0.11523613  0.43348375  0.79537390    -0.01000
Br1998     Br  0.16501667  0.39016369  0.74774669    -0.01000
Br1999     Br  0.20296890  0.46143733  0.89284053    -0.01000
Br2000     Br  0.25341589  0.43130006  0.84114663    -0.01000
C2001       C  0.18501444  0.74941782  0.58622379    -0.02100
C2002       C  0.15689973  0.74071222  0.57476386     0.07600
C2003       C  0.14749593  0.75650675  0.54442964    -0.02200
C2004       C  0.16731182  0.77550532  0.52393574    -0.02200
C2005       C  0.19701815  0.77546469  0.53195416     0.07700
C2006       C  0.20498749  0.76699983  0.56493780    -0.02400
Br2007     Br  0.24301693  0.77878937  0.58128408    -0.01000
Br2008     Br  0.19665905  0.73740932  0.63111103    -0.01000
Br2009     Br  0.15438808  0.79946945  0.48343821    -0.01000
Br2010     Br  0.10872726  0.74888226  0.52871930    -0.01000
C2011       C  0.16445397  0.54701678  0.71253322    -0.02100
C2012       C  0.15943179  0.54871047  0.67793422     0.07600
C2013       C  0.17740011  0.52769268  0.65615991    -0.02200
C2014       C  0.19993823  0.50482263  0.66897668    -0.02200
C2015       C  0.20506751  0.50383208  0.70336895     0.07700
C2016       C  0.18785747  0.52608572  0.72488435    -0.02400
Br2017     Br  0.19724287  0.52957378  0.77171990    -0.01000
Br2018     Br  0.14129974  0.57618861  0.74364227    -0.01000
Br2019     Br  0.22355557  0.47453010  0.63984304    -0.01000
Br2020     Br  0.17010987  0.52845507  0.60903550    -0.01000
C2021       C  0.21578601  0.67049638  0.72091628    -0.02100
C2022       C  0.19452917  0.69954658  0.72397836     0.07600
C2023       C  0.20278485  0.73423391  0.73846238    -0.02200
C2024       C  0.23217523  0.74092037  0.74590686    -0.02200
C2025       C  0.25327860  0.71289735  0.73956940     0.07700
C2026       C  0.24477934  0.67728790  0.72861276    -0.02400
Br2027     Br  0.27363685  0.63818091  0.72244622    -0.01000
Br2028     Br  0.20632608  0.62057549  0.70598287    -0.01000
Br2029     Br  0.24365456  0.78834601  0.76484114    -0.01000
Br2030     Br  0.17461756  0.77337859  0.74701771    -0.01000
C2031       C  0.74176918  0.68106084  0.54345094    -0.02100
C2032       C  0.75224482  0.70839379  0.52143388     0.07600
C2033       C  0.73271766  0.73368931  0.50597013    -0.02200
C2034       C  0.70277197  0.73144215  0.51260948    -0.02200
C2035       C  0.69242990  0.70487224  0.53575983     0.07700
C2036       C  0.71243220  0.68058718  0.55186470    -0.02400
Br2037     Br  0.70126159  0.65103323  0.58976225    -0.01000
Br2038     Br  0.76803410  0.64440285  0.56271043    -0.01000
Br2039     Br  0.67612810  0.76511169  0.49059730    -0.01000
Br2040     Br  0.74712794  0.77257143  0.47713629    -0.01000
C2041       C  0.84135144  0.70562990  0.93321514    -0.02100
C2042       C  0.85026283  0.69786586  0.96604380     0.07600
C2043       C  0.88012317  0.69273649  0.97198028    -0.02200
C2044       C  0.90060940  0.70655093  0.94943566    -0.02200
C2045       C  0.89158414  0.71969393  0.91807280     0.07700
C2046       C  0.86211922  0.71530279  0.90903730    -0.02400
Br2047     Br  0.84961087  0.72260742  0.86364939    -0.01000
Br2048     Br  0.80119876  0.70351926  0.92063603    -0.01000
Br2049     Br  0.94001984  0.71150946  0.96415033    -0.01000
Br2050     Br  0.89322020  0.66535334  0.01048565    -0.01000
C2051       C  0.89228926  0.02195265  0.67751736    -0.02100
C2052       C  0.88464338  0.99737271  0.65180539     0.07600
C2053       C  0.85526755  0.99101072  0.64518367    -0.02200
C2054       C  0.83425187  0.00145221  0.66871590    -0.02200
C2055       C  0.84277760  0.02001265  0.69794453     0.07700
C2056       C  0.87085383  0.03492339  0.69954522    -0.02400
Br2057     Br  0.87946721  0.07256440  0.73229476    -0.01000
Br2058     Br  0.93190486  0.03619468  0.68330406    -0.01000
Br2059     Br  0.79468286  0.98777877  0.66172041    -0.01000
Br2060     Br  0.84407361  0.96735330  0.60429201    -0.01000
C2061       C  0.85456260  0.81715264  0.58849727    -0.02100
C2062       C  0.88379631  0.80562345  0.58997472     0.07600
C2063       C  0.89067582  0.76688553  0.58938523    -0.02200
C2064       C  0.86877415  0.74057387  0.58351849    -0.02200
C2065       C  0.84099664  0.75310612  0.57450392     0.07700
C2066       C  0.83309729  0.79081709  0.58078134    -0.02400
Br2067     Br  0.79348716  0.80708031  0.57628659    -0.01000
Br2068     Br  0.84404159  0.86954468  0.59255595    -0.01000
Br2069     Br  0.87604711  0.68731320  0.58795615    -0.01000
Br2070     Br  0.92998680  0.75002113  0.59473629    -0.01000
C2071       C  0.80998214  0.91977720  0.51156169    -0.02100
C2072       C  0.79728612  0.95537518  0.51829894     0.07600
C2073       C  0.81589261  0.48846165  0.52008476    -0.02200
C2074       C  0.84623539  0.48480578  0.51785067    -0.02200
C2075       C  0.85871688  0.94706455  0.51455239     0.07700
C2076       C  0.84028899  0.91574092  0.50882256    -0.02400
Br2077     Br  0.85553138  0.86663323  0.49630867    -0.01000
Br2078     Br  0.78629115  0.87531648  0.50837589    -0.01000
Br2079     Br  0.86888789  0.53044438  0.51965316    -0.01000
Br2080     Br  0.79925631  0.53840091  0.52475759    -0.01000
loop_ 
_geom_bond_atom_site_label_1 
_geom_bond_atom_site_label_2 
_geom_bond_distance 
_geom_bond_site_symmetry_2 
_ccdc_geom_bond_type 
C1            N2   1.370       .  A
C1            N6   1.371       .  A
C1           C60   1.501       .  S
N2            C3   1.368       .  A
C3            N4   1.355       .  A
C3          C654   1.482   1_554  S
N4            C5   1.355       .  A
C5            N6   1.368       .  A
C5         C1064   1.479   1_455  S
Zn7          O11   1.938       .  S
Zn7          O12   2.086   1_655  S
Zn7          O16   2.062   1_655  S
Zn7          O23   2.111   1_655  S
Zn8          O11   1.953       .  S
Zn8          O13   2.040       .  S
Zn8          O15   2.034       .  S
Zn8          O19   1.999       .  S
Zn9          O11   1.935       .  S
Zn9          O14   2.037       .  S
Zn9          O17   2.006       .  S
Zn9          O20   2.019       .  S
Zn10         O11   1.926       .  S
Zn10         O18   2.022       .  S
Zn10         O21   2.036       .  S
Zn10         O22   2.029       .  S
O12          C24   1.285   1_455  A
O13          C25   1.275       .  A
O14          C26   1.276       .  A
O15          C24   1.278       .  A
O16          C26   1.282   1_455  A
O17          C25   1.270       .  A
O18          C27   1.273       .  A
O19          C28   1.269       .  A
O20          C27   1.275       .  A
O21          C28   1.277       .  A
O22          C29   1.279       .  A
O23          C29   1.286   1_455  A
C24        C1045   1.480   1_655  S
C25         C515   1.515       .  S
C26         C630   1.483   1_654  S
C27         C502   1.477       .  S
C28         C492   1.472       .  S
C29          C36   1.493   1_655  S
C30          N35   1.362       .  A
C30         N551   1.368   1_554  A
C30         C472   1.483       .  S
N31          C32   1.367       .  A
N31         C550   1.368       .  A
C32          N33   1.353       .  A
C32         C482   1.498       .  S
N33         C554   1.350       .  A
C34          N35   1.355       .  A
C34         N553   1.350       .  A
C34         C505   1.479       .  S
C36          N37   1.375       .  A
C36          N41   1.364   1_455  A
N37          C38   1.373       .  A
C38          N39   1.359       .  A
C38          C61   1.491       .  S
N39          C40   1.356       .  A
C40          N41   1.356   1_455  A
C40          C98   1.474   1_455  S
Zn42         O46   1.947       .  S
Zn42         O47   2.031       .  S
Zn42         O51   2.061       .  S
Zn42         O58   2.112       .  S
Zn43         O46   1.949       .  S
Zn43         O48   2.067       .  S
Zn43         O50   2.087       .  S
Zn43         O54   2.041       .  S
Zn44         O46   1.939       .  S
Zn44         O49   2.082       .  S
Zn44         O52   2.112       .  S
Zn44         O55   2.053       .  S
Zn45         O46   1.932       .  S
Zn45         O53   1.978       .  S
Zn45         O56   1.994       .  S
Zn45         O57   1.955       .  S
O47          C59   1.276       .  A
O48          C60   1.283       .  A
O49          C61   1.286       .  A
O50          C59   1.283       .  A
O51          C61   1.284       .  A
O52          C60   1.290       .  A
O53          C62   1.268       .  A
O54          C63   1.277       .  A
O55          C62   1.275       .  A
O56          C63   1.269       .  A
O57          C64   1.262       .  A
O58          C64   1.283       .  A
C59          C73   1.484       .  S
C62         C442   1.487       .  S
C63         C452   1.480       .  S
C64         C462   1.516       .  S
C65          N66   1.365       .  A
C65        N1110   1.369       .  A
C65         C425   1.504       .  S
N66        C1107   1.360       .  A
C67          N68   1.346       .  A
C67        N1106   1.359       .  A
C67         C432   1.486       .  S
N68          C69   1.343       .  A
C69          N70   1.361       .  A
C69         C455   1.472   1_565  S
N70        C1105   1.370       .  A
C71          N72   1.367       .  A
C71          N76   1.373       .  A
C71         C131   1.492       .  S
N72          C73   1.359       .  A
C73          N74   1.357       .  A
N74          C75   1.362       .  A
C75          N76   1.371       .  A
C75          C94   1.492   1_455  S
Zn77         O81   1.941       .  S
Zn77         O82   2.107       .  S
Zn77         O86   2.082       .  S
Zn77         O93   2.110       .  S
Zn78         O81   1.926       .  S
Zn78         O83   2.067       .  S
Zn78         O85   2.030       .  S
Zn78         O89   2.015       .  S
Zn79         O81   1.908       .  S
Zn79         O84   1.951       .  S
Zn79         O87   1.977       .  S
Zn79         O90   1.977       .  S
Zn80         O81   1.955       .  S
Zn80         O88   2.066       .  S
Zn80         O91   2.071       .  S
Zn80         O92   2.058       .  S
O82          C94   1.287       .  A
O83          C95   1.280       .  A
O84          C96   1.262       .  A
O85          C94   1.278       .  A
O86          C96   1.279       .  A
O87          C95   1.270       .  A
O88          C97   1.277       .  A
O89          C98   1.275       .  A
O90          C97   1.262       .  A
O91          C98   1.281       .  A
O92          C99   1.283       .  A
O93          C99   1.291       .  A
C95         C412   1.483       .  S
C96         C485   1.498       .  S
C97         C402   1.483       .  S
C99         C106   1.497   1_655  S
C100        N101   1.360       .  A
C100        N105   1.366       .  A
C100        C392   1.480       .  S
N101        C102   1.354       .  A
C102        N103   1.349       .  A
C102        C405   1.483       .  S
N103        C104   1.355       .  A
C104        N105   1.365       .  A
C104        C495   1.479       .  S
C106        N107   1.371       .  A
C106        N111   1.367   1_455  A
N107        C108   1.368       .  A
C108        N109   1.359       .  A
C108        C129   1.488       .  S
N109        C110   1.360       .  A
C110        N111   1.365   1_455  A
C110        C546   1.485   1_455  S
Zn112       O116   1.930       .  S
Zn112       O121   2.122       .  S
Zn112       O128   2.079       .  S
Zn112      O1157   2.091   1_545  S
Zn113      O1156   1.951       .  S
Zn113       O120   2.058       .  S
Zn113       O124   2.077       .  S
Zn113      O1158   1.995       .  S
Zn114       O116   1.938       .  S
Zn114       O119   2.022       .  S
Zn114       O122   2.048       .  S
Zn114       O125   2.061       .  S
Zn115       O116   1.910       .  S
Zn115       O123   1.992       .  S
Zn115       O126   2.004       .  S
Zn115       O127   2.001       .  S
O116      Zn1153   1.949   1_545  S
O117      Zn1152   2.092       .  S
O117        C129   1.287       .  A
O118      Zn1153   1.990       .  S
O118        C130   1.270       .  A
O119        C131   1.279       .  A
O120        C129   1.283       .  A
O121        C131   1.289       .  A
O122        C130   1.279   1_545  A
O123        C132   1.267       .  A
O124        C133   1.280       .  A
O125        C132   1.277       .  A
O126       C1173   1.269       .  A
O127        C134   1.272       .  A
O128        C134   1.282       .  A
C130        C435   1.471       .  S
C132        C372   1.489       .  S
C133        C385   1.495       .  S
C133       O1166   1.269       .  A
C134        C523   1.477       .  S
C135        N140   1.368       .  A
C135        N656   1.366       .  A
C135        C365   1.494       .  S
N136        C137   1.360       .  A
N136        C655   1.365   1_554  A
C137        N138   1.349   1_554  A
C137        C445   1.495       .  S
N138        C659   1.349       .  A
C139        N140   1.361       .  A
C139        N658   1.347       .  A
C139        C375   1.472       .  S
C141        N142   1.374       .  A
C141        N146   1.369       .  A
C141        C200   1.498       .  S
N142        C143   1.373       .  A
C143        N144   1.354       .  A
C143        C169   1.481       .  S
N144        C145   1.352       .  A
C145        N146   1.360       .  A
C145        C754   1.474       .  S
Zn147       O151   1.958       .  S
Zn147       O152   2.072       .  S
Zn147       O156   1.990       .  S
Zn147       O163   2.038       .  S
Zn148       O151   1.915       .  S
Zn148       O153   1.993       .  S
Zn148       O155   2.010       .  S
Zn148       O159   2.015       .  S
Zn149       O151   1.939       .  S
Zn149       O154   2.040       .  S
Zn149       O157   2.045       .  S
Zn149       O160   2.018       .  S
Zn150       O151   1.937       .  S
Zn150       O158   2.151       .  S
Zn150       O161   2.114       .  S
Zn150       O162   2.095       .  S
O152        C164   1.279       .  A
O153        C165   1.268       .  A
O154        C166   1.278       .  A
O155        C164   1.270       .  A
O156        C166   1.268       .  A
O157        C165   1.276       .  A
O158        C167   1.293       .  A
O159        C168   1.273       .  A
O160        C167   1.277       .  A
O161        C168   1.286       .  A
O162        C169   1.288       .  A
O163        C169   1.281       .  A
C164        C475   1.496       .  S
C165        C352   1.483       .  S
C166        C342   1.470       .  S
C167        C176   1.501       .  S
C168        C733   1.491   1_554  S
C170        N175   1.367       .  A
C170       N1731   1.371       .  A
C170       C1552   1.501       .  S
N171       C1730   1.371       .  A
N171       C1212   1.366       .  A
C172        N173   1.345       .  A
C172       N1211   1.366       .  A
C172        C332   1.502       .  S
N173        C694   1.344       .  A
C174        N175   1.358       .  A
C174        N693   1.344       .  A
C174        C355   1.467   1_565  S
C176        N177   1.373       .  A
C176        N181   1.372       .  A
N177        C178   1.364       .  A
C178        N179   1.353       .  A
C178        C273   1.483       .  S
N179        C180   1.355       .  A
C180        N181   1.371       .  A
C180       C1243   1.480       .  S
Zn182       O186   1.929       .  S
Zn182       O187   2.025       .  S
Zn182       O191   2.003       .  S
Zn182       O198   1.995       .  S
Zn183       O186   1.948       .  S
Zn183       O188   2.134       .  S
Zn183       O190   2.092       .  S
Zn183       O194   2.084       .  S
Zn184       O186   1.936       .  S
Zn184       O189   2.022       .  S
Zn184       O192   2.021       .  S
Zn184       O195   2.024       .  S
Zn185       O186   1.961       .  S
Zn185       O193   2.017       .  S
Zn185       O196   2.029       .  S
Zn185       O197   2.043       .  S
O187        C199   1.275       .  A
O188        C200   1.290       .  A
O189        C201   1.271       .  A
O190        C199   1.283       .  A
O191        C201   1.272       .  A
O192        C200   1.278       .  A
O193        C202   1.271       .  A
O194        C203   1.286       .  A
O195        C202   1.275       .  A
O196        C203   1.278       .  A
O197        C204   1.275       .  A
O198        C204   1.271       .  A
C199        C250   1.489       .  S
C201        C322   1.470       .  S
C202        C315   1.474       .  S
C203       C1220   1.477       .  S
C204        C422   1.501       .  S
C205        N206   1.362       .  A
C205        N210   1.365       .  A
C205        C465   1.480       .  S
N206        C207   1.359       .  A
C207        N208   1.351       .  A
C207        C325   1.479       .  S
N208        C209   1.353       .  A
C209        N210   1.363       .  A
C209        C305   1.484       .  S
C211        N212   1.368       .  A
C211        N216   1.370       .  A
C211        C272   1.497       .  S
N212        C213   1.368       .  A
C213        N214   1.358       .  A
C213        C688   1.491       .  S
N214        C215   1.362       .  A
C215        N216   1.367       .  A
C215        C236   1.489       .  S
Zn217       O221   1.926       .  S
Zn217       O222   2.008       .  S
Zn217       O226   2.031       .  S
Zn217       O233   2.067       .  S
Zn218       O221   1.949       .  S
Zn218       O223   2.051       .  S
Zn218       O225   2.071       .  S
Zn218       O229   2.058       .  S
Zn219       O221   1.942       .  S
Zn219       O224   2.093       .  S
Zn219       O227   2.116       .  S
Zn219       O230   2.090       .  S
Zn220       O221   1.904       .  S
Zn220       O228   1.944       .  S
Zn220       O231   1.981       .  S
Zn220       O232   1.981       .  S
O222        C234   1.274       .  A
O223        C235   1.282       .  A
O224        C236   1.286       .  A
O225        C234   1.281       .  A
O226        C236   1.279       .  A
O227        C235   1.292       .  A
O228        C237   1.262       .  A
O229        C238   1.277       .  A
O230        C237   1.279       .  A
O231        C238   1.264       .  A
O232        C239   1.271       .  A
O233        C239   1.279       .  A
C234        C665   1.474       .  S
C235        C246   1.495       .  S
C237        C302   1.499       .  S
C238        C292   1.484       .  S
C239        C362   1.487       .  S
C240        N241   1.359       .  A
C240        N765   1.365       .  A
C240        C382   1.482       .  S
N241        C242   1.356       .  A
C242        N763   1.353       .  A
C242        C295   1.487       .  S
N243        C244   1.357       .  A
N243        C762   1.353   1_554  A
C244        N245   1.367       .  A
C244        C312   1.488       .  S
N245        C760   1.367   1_554  A
C246        N247   1.370       .  A
C246        N251   1.366       .  A
N247        C248   1.366       .  A
C248        N249   1.362       .  A
C248        C270   1.490       .  S
N249        C250   1.361       .  A
C250        N251   1.366       .  A
Zn252       O256   1.928       .  S
Zn252       O257   1.937       .  S
Zn252       O261   1.977       .  S
Zn252       O268   2.003       .  S
Zn253       O256   1.955       .  S
Zn253       O264   2.029       .  S
Zn253      O1298   2.052   1_545  S
Zn253      O1300   2.100   1_545  S
Zn254       O256   1.942       .  S
Zn254       O259   2.079   1_545  S
Zn254       O265   2.116       .  S
Zn254      O1302   2.087   1_545  S
Zn255       O256   1.949       .  S
Zn255       O263   2.054       .  S
Zn255       O266   2.079       .  S
Zn255       O267   2.023       .  S
O257       C1309   1.258       .  A
O258      Zn1293   2.055       .  S
O258        C270   1.283       .  A
O259        C271   1.278       .  A
O260      Zn1293   2.099       .  S
O260        C269   1.281       .  A
O261        C271   1.268   1_545  A
O262      Zn1294   2.085       .  S
O262        C270   1.287       .  A
O263        C272   1.282       .  A
O264        C273   1.275       .  A
O265        C272   1.291       .  A
O266        C273   1.281       .  A
O267        C274   1.275       .  A
O268        C274   1.271       .  A
C269        C395   1.513       .  S
C269       O1297   1.258       .  A
C271        C335   1.488       .  S
C274        C282   1.477       .  S
C275        N276   1.365       .  A
C275        N280   1.366       .  A
C275        C415   1.496       .  S
N276        C277   1.359       .  A
C277        N278   1.350       .  A
C277        C345   1.488       .  S
N278        C279   1.347       .  A
C279        N280   1.359       .  A
C279        C285   1.469       .  S
C281        C282   1.412       .  A
C281        C286   1.413       .  A
C281       Br288   1.927       .  S
C282        C283   1.413       .  A
C283        C284   1.400       .  A
C283       Br290   1.935       .  S
C284        C285   1.407       .  A
C284       Br289   1.935       .  S
C285        C286   1.408       .  A
C286       Br287   1.926       .  S
C291        C292   1.419       .  A
C291        C296   1.408       .  A
C291       Br298   1.938       .  S
C292        C293   1.407       .  A
C293        C294   1.407       .  A
C293       Br300   1.931       .  S
C294        C295   1.414       .  A
C294       Br299   1.927       .  S
C295        C296   1.415       .  A
C296       Br297   1.937       .  S
C301        C302   1.414       .  A
C301        C306   1.411       .  A
C301       Br308   1.928       .  S
C302        C303   1.428       .  A
C303        C304   1.408       .  A
C303       Br310   1.936       .  S
C304        C305   1.404       .  A
C304       Br309   1.932       .  S
C305        C306   1.411       .  A
C306       Br307   1.925       .  S
C311        C312   1.413       .  A
C311        C316   1.408       .  A
C311       Br318   1.922       .  S
C312        C313   1.408       .  A
C313        C314   1.408       .  A
C313       Br320   1.923       .  S
C314        C315   1.410       .  A
C314       Br319   1.924       .  S
C315        C316   1.403       .  A
C316       Br317   1.926       .  S
C321        C322   1.403       .  A
C321        C326   1.407       .  A
C321       Br328   1.929       .  S
C322        C323   1.408       .  A
C323        C324   1.405       .  A
C323       Br330   1.924       .  S
C324        C325   1.410       .  A
C324       Br329   1.931       .  S
C325        C326   1.415       .  A
C326       Br327   1.925       .  S
C331        C332   1.411       .  A
C331        C336   1.411       .  A
C331       Br338   1.930       .  S
C332        C333   1.424       .  A
C333        C334   1.411       .  A
C333      Br1380   1.935       .  S
C334        C335   1.406       .  A
C334      Br1379   1.928       .  S
C335        C336   1.416       .  A
C336       Br337   1.931       .  S
Br339      C1374   1.928       .  S
Br340      C1373   1.935       .  S
C341        C342   1.411       .  A
C341        C346   1.408       .  A
C341       Br348   1.927       .  S
C342        C343   1.401       .  A
C343        C344   1.405       .  A
C343       Br350   1.926       .  S
C344        C345   1.416       .  A
C344       Br349   1.929       .  S
C345        C346   1.412       .  A
C346       Br347   1.930       .  S
C351        C352   1.417       .  A
C351        C356   1.398       .  A
C351       Br358   1.934       .  S
C352        C353   1.415       .  A
C353        C354   1.414       .  A
C353       Br360   1.927       .  S
C354        C355   1.407       .  A
C354       Br359   1.924   1_545  S
C355        C356   1.406       .  A
C356       Br357   1.938       .  S
C361        C362   1.412       .  A
C361        C366   1.414       .  A
C361       Br888   1.930       .  S
C362        C363   1.411       .  A
C363        C364   1.408       .  A
C363       Br370   1.934       .  S
C364        C365   1.415       .  A
C364       Br369   1.931       .  S
C365        C366   1.417       .  A
C366       Br887   1.931       .  S
Br367       C886   1.932       .  S
Br368       C881   1.930       .  S
C371        C372   1.419       .  A
C371        C376   1.398       .  A
C371       Br378   1.934       .  S
C372        C373   1.416       .  A
C373        C374   1.417       .  A
C373       Br380   1.928       .  S
C374        C375   1.408       .  A
C374       Br379   1.925       .  S
C375        C376   1.407       .  A
C376       Br897   1.942       .  S
Br377       C896   1.941   1_554  S
C381        C386   1.404       .  A
C381       C1422   1.402       .  A
C381       Br908   1.936       .  S
C382        C383   1.415       .  A
C382       C1421   1.402       .  A
C383        C384   1.417       .  A
C383       Br390   1.925       .  S
C384        C385   1.411       .  A
C384       Br389   1.926       .  S
C385       C1426   1.418       .  A
C386       C1425   1.419       .  A
C386       Br387   1.922       .  S
Br388       C901   1.936       .  S
C391        C392   1.399       .  A
C391       C1436   1.406       .  A
C391      Br1438   1.942       .  S
C392        C393   1.409       .  A
C393        C394   1.417       .  A
C393       Br400   1.928       .  S
C394        C395   1.423       .  A
C394       Br399   1.933       .  S
C395       C1436   1.439       .  A
C396       C1431   1.405       .  A
C396       C1435   1.439       .  A
C396       Br397   1.946       .  S
Br398      C1431   1.943       .  S
C401        C402   1.408       .  A
C401        C406   1.408       .  A
C401       Br408   1.931       .  S
C402        C403   1.420       .  A
C403        C404   1.406       .  A
C403       Br410   1.936       .  S
C404        C405   1.412       .  A
C404       Br409   1.937       .  S
C405        C406   1.414       .  A
C406       Br407   1.927       .  S
C411        C412   1.409       .  A
C411        C416   1.413       .  A
C411       Br418   1.933       .  S
C412        C413   1.409       .  A
C413        C414   1.408       .  A
C413       Br420   1.934       .  S
C414        C415   1.419       .  A
C414       Br419   1.934       .  S
C415        C416   1.421       .  A
C416       Br417   1.933       .  S
C421        C422   1.419       .  A
C421        C426   1.414       .  A
C421       Br428   1.936       .  S
C422       C1463   1.415       .  A
C423        C424   1.410       .  A
C423       C1462   1.415       .  A
C423       Br430   1.938       .  S
C424       C1465   1.421       .  A
C424       Br429   1.935       .  S
C425        C426   1.420       .  A
C425       C1464   1.421       .  A
C426       Br427   1.935       .  S
C431        C432   1.416       .  A
C431        C436   1.405       .  A
C431       Br438   1.931       .  S
C432        C433   1.412       .  A
C433        C434   1.406       .  A
C433       Br440   1.931       .  S
C434        C435   1.411       .  A
C434       Br439   1.924       .  S
C435        C436   1.402       .  A
C436       Br437   1.926       .  S
C441        C442   1.418       .  A
C441        C446   1.410       .  A
C441       Br448   1.934       .  S
C442        C443   1.408       .  A
C443        C444   1.409       .  A
C443       Br450   1.930       .  S
C444        C445   1.418       .  A
C444       Br449   1.931   1_554  S
C445        C446   1.414       .  A
C446       Br447   1.934       .  S
C451        C452   1.413       .  A
C451        C456   1.402       .  A
C451       Br458   1.938       .  S
C452        C453   1.416       .  A
C453        C454   1.414       .  A
C453       Br460   1.927       .  S
C454        C455   1.406       .  A
C454       Br459   1.926   1_545  S
C455        C456   1.411       .  A
C456       Br457   1.937       .  S
C461        C462   1.436       .  A
C461        C466   1.406       .  A
C461       Br468   1.936       .  S
C462        C463   1.424       .  A
C463        C464   1.420       .  A
C463       Br470   1.931       .  S
C464        C465   1.409       .  A
C464       Br469   1.929       .  S
C465        C466   1.396       .  A
C466       Br467   1.939       .  S
C471        C472   1.402       .  A
C471        C476   1.403       .  A
C471       Br478   1.936       .  S
C472        C473   1.414       .  A
C473        C474   1.420       .  A
C473       Br480   1.926   1_554  S
C474        C475   1.413       .  A
C474       Br479   1.926   1_554  S
C475        C476   1.417       .  A
C476       Br477   1.921       .  S
C481        C482   1.411       .  A
C481        C486   1.414       .  A
C481       Br488   1.932       .  S
C482        C483   1.416       .  A
C483        C484   1.406       .  A
C483       Br490   1.926       .  S
C484        C485   1.411       .  A
C484       Br489   1.932       .  S
C485        C486   1.427       .  A
C486       Br487   1.936       .  S
C491        C492   1.403       .  A
C491        C496   1.406       .  A
C491       Br498   1.924       .  S
C492        C493   1.410       .  A
C493        C494   1.406       .  A
C493       Br500   1.922       .  S
C494        C495   1.407       .  A
C494       Br499   1.923       .  S
C495        C496   1.411       .  A
C496       Br497   1.922       .  S
C501        C502   1.413       .  A
C501        C506   1.406       .  A
C501       Br508   1.920       .  S
C502        C503   1.406       .  A
C503        C504   1.406       .  A
C503       Br510   1.926       .  S
C504        C505   1.408       .  A
C504       Br509   1.923       .  S
C505        C506   1.407       .  A
C506       Br507   1.930       .  S
C511        C512   1.413       .  A
C511        C516   1.414       .  A
C511       Br518   1.935       .  S
C512       C1210   1.501       .  S
C512       C1553   1.416       .  A
C513        C514   1.415       .  A
C513       C1552   1.416       .  A
C513       Br520   1.935   1_565  S
C514       C1555   1.424       .  A
C514       Br519   1.939   1_565  S
C515        C516   1.427       .  A
C515       C1554   1.424       .  A
C516       Br517   1.941   1_554  S
C521        N522   1.367       .  A
C521        N526   1.373       .  A
C521        C580   1.501       .  S
N522        C523   1.366       .  A
C523        N524   1.355       .  A
N524        C525   1.355       .  A
C525        N526   1.370       .  A
C525       C1584   1.483   1_455  S
Zn527       O531   1.937       .  S
Zn527       O532   2.089   1_655  S
Zn527       O536   2.069   1_655  S
Zn527       O543   2.119   1_655  S
Zn528       O531   1.952       .  S
Zn528       O533   2.040       .  S
Zn528       O535   2.038       .  S
Zn528       O539   2.005       .  S
Zn529       O531   1.938       .  S
Zn529       O534   2.041       .  S
Zn529       O537   2.012       .  S
Zn529       O540   2.023       .  S
Zn530       O531   1.925       .  S
Zn530       O538   2.019       .  S
Zn530       O541   2.029       .  S
Zn530       O542   2.021       .  S
O532        C544   1.285   1_455  A
O533        C545   1.275       .  A
O534        C546   1.278       .  A
O535        C544   1.279       .  A
O536        C546   1.282   1_455  A
O537        C545   1.271       .  A
O538        C547   1.273       .  A
O539        C548   1.270       .  A
O540        C547   1.275       .  A
O541        C548   1.276       .  A
O542        C549   1.278       .  A
O543        C549   1.288   1_455  A
C544       C1565   1.482   1_655  S
C545       C1035   1.514       .  S
C547       C1022   1.477       .  S
C548       C1012   1.471       .  S
C549        C556   1.494   1_655  S
C550        N555   1.362       .  A
C550        C992   1.482       .  S
N551        C552   1.367       .  A
C552        N553   1.354   1_556  A
C552       C1002   1.499       .  S
C554        N555   1.354       .  A
C554       C1025   1.477       .  S
C556        N557   1.374       .  A
C556        N561   1.367   1_455  A
N557        C558   1.372       .  A
C558        N559   1.359       .  A
C558        C581   1.489       .  S
N559        C560   1.355       .  A
C560        N561   1.358   1_455  A
C560        C618   1.480   1_455  S
Zn562       O566   1.953       .  S
Zn562       O567   2.026       .  S
Zn562       O571   2.042       .  S
Zn562       O578   2.090       .  S
Zn563       O566   1.958       .  S
Zn563       O568   2.051       .  S
Zn563       O570   2.079       .  S
Zn563       O574   2.020       .  S
Zn564       O566   1.950       .  S
Zn564       O569   2.091       .  S
Zn564       O572   2.121       .  S
Zn564       O575   2.062       .  S
Zn565       O566   1.943       .  S
Zn565       O573   1.993       .  S
Zn565       O576   2.001       .  S
Zn565       O577   1.971       .  S
O567        C579   1.275       .  A
O568        C580   1.280       .  A
O569        C581   1.286       .  A
O570        C579   1.281       .  A
O571        C581   1.281       .  A
O572        C580   1.291       .  A
O573        C582   1.270       .  A
O574        C583   1.275       .  A
O575        C582   1.277       .  A
O576        C583   1.271       .  A
O577        C584   1.267       .  A
O578        C584   1.280       .  A
C579        C593   1.481       .  S
C582        C962   1.493       .  S
C583        C972   1.481       .  S
C584        C982   1.498       .  S
C585        N586   1.367       .  A
C585       N1630   1.370       .  A
C585        C945   1.514       .  S
N586       C1627   1.361       .  A
C587       N1626   1.360       .  A
C587        N588   1.345       .  A
C587        C952   1.489       .  S
N588        C589   1.342       .  A
C589        N590   1.362       .  A
C589        C975   1.478   1_565  S
N590       C1625   1.370       .  A
C591        N592   1.368       .  A
C591        N596   1.374       .  A
C591        C651   1.496       .  S
N592        C593   1.360       .  A
C593        N594   1.355       .  A
N594        C595   1.360       .  A
C595        N596   1.372       .  A
C595        C614   1.490   1_455  S
Zn597       O601   1.944       .  S
Zn597       O602   2.099       .  S
Zn597       O606   2.078       .  S
Zn597       O613   2.105       .  S
Zn598       O601   1.929       .  S
Zn598       O603   2.074       .  S
Zn598       O605   2.034       .  S
Zn598       O609   2.025       .  S
Zn599       O601   1.909       .  S
Zn599       O604   1.948       .  S
Zn599       O607   1.970       .  S
Zn599       O610   1.975       .  S
Zn600       O601   1.956       .  S
Zn600       O608   2.062       .  S
Zn600       O611   2.078       .  S
Zn600       O612   2.062       .  S
O602        C614   1.286       .  A
O603        C615   1.280       .  A
O604        C616   1.262       .  A
O605        C614   1.279       .  A
O606        C616   1.279       .  A
O607        C615   1.269       .  A
O608        C617   1.277       .  A
O609        C618   1.276       .  A
O610        C617   1.262       .  A
O611        C618   1.282       .  A
O612        C619   1.284       .  A
O613        C619   1.289       .  A
C615        C932   1.483       .  S
C616       C1005   1.494       .  S
C617        C922   1.482       .  S
C619        C626   1.497   1_655  S
C620        N621   1.360       .  A
C620        N625   1.365       .  A
C620        C912   1.478       .  S
N621        C622   1.355       .  A
C622        N623   1.351       .  A
C622        C925   1.483       .  S
N623        C624   1.355       .  A
C624        N625   1.364       .  A
C624       C1015   1.479       .  S
C626        N627   1.370       .  A
C626        N631   1.368   1_455  A
N627        C628   1.369       .  A
C628        N629   1.357       .  A
C628        C649   1.484       .  S
N629        C630   1.356       .  A
C630        N631   1.366   1_455  A
Zn632       O636   1.928       .  S
Zn632      O1677   2.090   1_545  S
Zn632       O641   2.125       .  S
Zn632       O648   2.085       .  S
Zn633      O1676   1.949       .  S
Zn633      O1678   1.992       .  S
Zn633       O640   2.052       .  S
Zn633       O644   2.084       .  S
Zn634       O636   1.942       .  S
Zn634       O639   2.031       .  S
Zn634       O642   2.055       .  S
Zn634       O645   2.067       .  S
Zn635       O636   1.909       .  S
Zn635       O643   1.994       .  S
Zn635       O646   2.001       .  S
Zn635       O647   2.009       .  S
O636      Zn1673   1.949   1_545  S
O637      Zn1672   2.088       .  S
O637        C649   1.287       .  A
O638      Zn1673   1.992       .  S
O638        C650   1.270       .  A
O639        C651   1.280       .  A
O640        C649   1.283       .  A
O641        C651   1.290       .  A
O642        C650   1.280   1_545  A
O643        C652   1.268       .  A
O644        C653   1.280       .  A
O645        C652   1.277       .  A
O646       C1693   1.269       .  A
O647        C654   1.271       .  A
O648        C654   1.283       .  A
C650        C955   1.473       .  S
C652        C892   1.490       .  S
C653        C905   1.495       .  S
C653       O1686   1.268       .  A
C655        N660   1.367       .  A
C655        C885   1.492       .  S
N656        C657   1.361       .  A
C657        N658   1.348       .  A
C657        C965   1.496       .  S
C659        N660   1.359       .  A
C659        C895   1.473       .  S
C661        N662   1.374       .  A
C661        N666   1.369       .  A
C661        C720   1.498       .  S
N662        C663   1.373       .  A
C663        N664   1.354       .  A
C663        C689   1.481       .  S
N664        C665   1.352       .  A
C665        N666   1.359       .  A
Zn667       O671   1.956       .  S
Zn667       O672   2.067       .  S
Zn667       O676   1.989       .  S
Zn667       O683   2.035       .  S
Zn668       O671   1.915       .  S
Zn668       O673   1.995       .  S
Zn668       O675   2.005       .  S
Zn668       O679   2.013       .  S
Zn669       O671   1.937       .  S
Zn669       O674   2.031       .  S
Zn669       O677   2.042       .  S
Zn669       O680   2.010       .  S
Zn670       O671   1.936       .  S
Zn670       O678   2.149       .  S
Zn670       O681   2.115       .  S
Zn670       O682   2.095       .  S
O672        C684   1.279       .  A
O673        C685   1.269       .  A
O674        C686   1.276       .  A
O675        C684   1.270       .  A
O676        C686   1.268       .  A
O677        C685   1.275       .  A
O678        C687   1.293       .  A
O679        C688   1.273       .  A
O680        C687   1.276       .  A
O681        C688   1.286       .  A
O682        C689   1.288       .  A
O683        C689   1.281       .  A
C684        C995   1.494       .  S
C685        C872   1.483       .  S
C686        C862   1.467       .  S
C687        C696   1.498       .  S
C690       N1211   1.371       .  A
C690        N695   1.367       .  A
C690       C2072   1.504       .  S
N691       C1210   1.371       .  A
N691       C1732   1.365       .  A
C692       N1731   1.365       .  A
C692        N693   1.346       .  A
C692        C852   1.499   1_554  S
C694        N695   1.359       .  A
C694        C875   1.468   1_565  S
C696        N697   1.372       .  A
C696        N701   1.371       .  A
N697        C698   1.363       .  A
C698        N699   1.353       .  A
C698        C793   1.482       .  S
N699        C700   1.355       .  A
C700        N701   1.369       .  A
C700       C1763   1.476       .  S
Zn702       O706   1.934       .  S
Zn702       O707   2.041       .  S
Zn702       O711   2.007       .  S
Zn702       O718   2.002       .  S
Zn703       O706   1.948       .  S
Zn703       O708   2.137       .  S
Zn703       O710   2.095       .  S
Zn703       O714   2.077       .  S
Zn704       O706   1.936       .  S
Zn704       O709   2.014       .  S
Zn704       O712   2.014       .  S
Zn704       O715   2.026       .  S
Zn705       O706   1.962       .  S
Zn705       O713   2.026       .  S
Zn705       O716   2.031       .  S
Zn705       O717   2.052       .  S
O707        C719   1.276       .  A
O708        C720   1.290       .  A
O709        C721   1.271       .  A
O710        C719   1.283       .  A
O711        C721   1.273       .  A
O712        C720   1.277       .  A
O713        C722   1.272       .  A
O714        C723   1.285       .  A
O715        C722   1.274       .  A
O716        C723   1.279       .  A
O717        C724   1.276       .  A
O718        C724   1.272       .  A
C719        C770   1.494       .  S
C721        C842   1.468       .  S
C722        C835   1.478       .  S
C723       C1740   1.475       .  S
C724        C942   1.505       .  S
C725        N726   1.363       .  A
C725        N730   1.364       .  A
C725        C985   1.483       .  S
N726        C727   1.361       .  A
C727        N728   1.352       .  A
C727        C845   1.479       .  S
N728        C729   1.354       .  A
C729        N730   1.362       .  A
C729        C825   1.491       .  S
C731        N732   1.368       .  A
C731        N736   1.371       .  A
C731        C792   1.498       .  S
N732        C733   1.367       .  A
C733        N734   1.359       .  A
N734        C735   1.363       .  A
C735        N736   1.368       .  A
C735        C756   1.491       .  S
Zn737       O741   1.929       .  S
Zn737       O742   2.013   1_556  S
Zn737       O746   2.034       .  S
Zn737       O753   2.065       .  S
Zn738       O741   1.949       .  S
Zn738       O743   2.055       .  S
Zn738       O745   2.069       .  S
Zn738       O749   2.054       .  S
Zn739       O741   1.943       .  S
Zn739       O744   2.100       .  S
Zn739       O747   2.115       .  S
Zn739       O750   2.083       .  S
Zn740       O741   1.910       .  S
Zn740       O748   1.953       .  S
Zn740       O751   1.982       .  S
Zn740       O752   1.977       .  S
O742        C754   1.274       .  A
O743        C755   1.283       .  A
O744        C756   1.287       .  A
O745        C754   1.281   1_556  A
O746        C756   1.279       .  A
O747        C755   1.291       .  A
O748        C757   1.263       .  A
O749        C758   1.276       .  A
O750        C757   1.279       .  A
O751        C758   1.264       .  A
O752        C759   1.270       .  A
O753        C759   1.280       .  A
C755        C766   1.497       .  S
C757        C822   1.497       .  S
C758        C812   1.484       .  S
C759        C882   1.484       .  S
C760        N761   1.359       .  A
C760        C902   1.485       .  S
N761        C762   1.354       .  A
C762        C815   1.489       .  S
N763        C764   1.356       .  A
C764        N765   1.365       .  A
C764        C832   1.485       .  S
C766        N767   1.369       .  A
C766        N771   1.368       .  A
N767        C768   1.366       .  A
C768        N769   1.363       .  A
C768        C790   1.491       .  S
N769        C770   1.362       .  A
C770        N771   1.368       .  A
Zn772       O776   1.925       .  S
Zn772       O777   1.942       .  S
Zn772       O781   1.975       .  S
Zn772       O788   1.997       .  S
Zn773       O776   1.952       .  S
Zn773      O1818   2.054   1_545  S
Zn773      O1820   2.105       .  S
Zn773       O784   2.030       .  S
Zn774       O776   1.939       .  S
Zn774       O779   2.083   1_545  S
Zn774      O1822   2.085   1_545  S
Zn774       O785   2.124       .  S
Zn775       O776   1.949       .  S
Zn775       O783   2.048       .  S
Zn775       O786   2.075       .  S
Zn775       O787   2.020       .  S
O777       C1829   1.259       .  A
O778      Zn1813   2.055       .  S
O778        C790   1.283       .  A
O779        C791   1.278       .  A
O780      Zn1813   2.100       .  S
O780        C789   1.281       .  A
O781        C791   1.267   1_545  A
O782      Zn1814   2.089       .  S
O782        C790   1.288       .  A
O783        C792   1.281       .  A
O784        C793   1.275       .  A
O785        C792   1.291       .  A
O786        C793   1.281       .  A
O787        C794   1.275       .  A
O788        C794   1.270       .  A
C789        C915   1.514       .  S
C789       O1817   1.259       .  A
C791        C855   1.489       .  S
C794        C802   1.474       .  S
C795        N796   1.364       .  A
C795        N800   1.367       .  A
C795        C935   1.493       .  S
N796        C797   1.357       .  A
C797        N798   1.348       .  A
C797        C865   1.487       .  S
N798        C799   1.347       .  A
C799        N800   1.361       .  A
C799        C805   1.468       .  S
C801        C802   1.411       .  A
C801        C806   1.413       .  A
C801       Br808   1.928       .  S
C802        C803   1.412       .  A
C803        C804   1.399       .  A
C803       Br810   1.935       .  S
C804        C805   1.407       .  A
C804       Br809   1.935       .  S
C805        C806   1.409       .  A
C806       Br807   1.926       .  S
C811        C812   1.419       .  A
C811        C816   1.409       .  A
C811       Br818   1.937       .  S
C812        C813   1.407       .  A
C813        C814   1.407       .  A
C813       Br820   1.932       .  S
C814        C815   1.414       .  A
C814       Br819   1.925       .  S
C815        C816   1.415       .  A
C816       Br817   1.937       .  S
C821        C822   1.413       .  A
C821        C826   1.409       .  A
C821       Br828   1.929       .  S
C822        C823   1.426       .  A
C823        C824   1.409       .  A
C823       Br830   1.936       .  S
C824        C825   1.407       .  A
C824       Br829   1.932       .  S
C825        C826   1.411       .  A
C826       Br827   1.925       .  S
C831        C832   1.414       .  A
C831        C836   1.411       .  A
C831       Br838   1.923       .  S
C832        C833   1.406       .  A
C833        C834   1.405       .  A
C833       Br840   1.926       .  S
C834        C835   1.410       .  A
C834       Br839   1.919       .  S
C835        C836   1.405       .  A
C836       Br837   1.925       .  S
C841        C842   1.402       .  A
C841        C846   1.409       .  A
C841       Br848   1.928       .  S
C842        C843   1.406       .  A
C843        C844   1.401       .  A
C843       Br850   1.920       .  S
C844        C845   1.408       .  A
C844       Br849   1.925       .  S
C845        C846   1.416       .  A
C846       Br847   1.924       .  S
C851        C852   1.411       .  A
C851        C856   1.411       .  A
C851       Br858   1.930       .  S
C852        C853   1.421       .  A
C853        C854   1.411       .  A
C853      Br1900   1.933   1_556  S
C854        C855   1.406       .  A
C854      Br1899   1.927       .  S
C855        C856   1.418       .  A
C856       Br857   1.931       .  S
Br859      C1894   1.927       .  S
Br860      C1893   1.933   1_554  S
C861        C862   1.409       .  A
C861        C866   1.407       .  A
C861       Br868   1.928       .  S
C862        C863   1.400       .  A
C863        C864   1.404       .  A
C863       Br870   1.927       .  S
C864        C865   1.417       .  A
C864       Br869   1.930       .  S
C865        C866   1.414       .  A
C866       Br867   1.931       .  S
C871        C872   1.417       .  A
C871        C876   1.398       .  A
C871       Br878   1.934       .  S
C872        C873   1.414       .  A
C873        C874   1.414       .  A
C873       Br880   1.928       .  S
C874        C875   1.408       .  A
C874       Br879   1.924   1_545  S
C875        C876   1.408       .  A
C876       Br877   1.938       .  S
C881        C882   1.410       .  A
C881        C886   1.412       .  A
C882        C883   1.411       .  A
C883        C884   1.408       .  A
C883       Br890   1.934   1_556  S
C884        C885   1.415       .  A
C884       Br889   1.932   1_556  S
C885        C886   1.418       .  A
C891        C892   1.419       .  A
C891        C896   1.396       .  A
C891       Br898   1.933       .  S
C892        C893   1.419       .  A
C893        C894   1.419       .  A
C893       Br900   1.927       .  S
C894        C895   1.407       .  A
C894       Br899   1.924       .  S
C895        C896   1.405       .  A
C901       C1942   1.404       .  A
C901        C906   1.403       .  A
C902       C1941   1.405       .  A
C902        C903   1.415   1_556  A
C903        C904   1.418   1_554  A
C903       Br910   1.925       .  S
C904        C905   1.411       .  A
C904       Br909   1.926   1_556  S
C905       C1946   1.418       .  A
C906       C1945   1.417       .  A
C906       Br907   1.924       .  S
C911        C912   1.398       .  A
C911       C1956   1.406       .  A
C911      Br1958   1.942       .  S
C912        C913   1.408       .  A
C913        C914   1.417       .  A
C913       Br920   1.929       .  S
C914        C915   1.425       .  A
C914       Br919   1.932       .  S
C915       C1956   1.440       .  A
C916       C1951   1.406       .  A
C916       C1955   1.440       .  A
C916       Br917   1.945       .  S
Br918      C1951   1.942       .  S
C921        C922   1.406       .  A
C921        C926   1.407       .  A
C921       Br928   1.931       .  S
C922        C923   1.419       .  A
C923        C924   1.407       .  A
C923       Br930   1.936       .  S
C924        C925   1.412       .  A
C924       Br929   1.935       .  S
C925        C926   1.413       .  A
C926       Br927   1.925       .  S
C931        C932   1.410       .  A
C931        C936   1.414       .  A
C931       Br938   1.931       .  S
C932        C933   1.409       .  A
C933        C934   1.407       .  A
C933       Br940   1.933       .  S
C934        C935   1.417       .  A
C934       Br939   1.934       .  S
C935        C936   1.419       .  A
C936       Br937   1.931       .  S
C941        C942   1.418       .  A
C941        C946   1.417       .  A
C941       Br948   1.938       .  S
C942       C1983   1.414       .  A
C943       C1982   1.414       .  A
C943        C944   1.412       .  A
C943       Br950   1.939       .  S
C944       C1985   1.426       .  A
C944       Br949   1.937       .  S
C945       C1984   1.425       .  A
C945        C946   1.424       .  A
C946       Br947   1.934       .  S
C951        C952   1.418       .  A
C951        C956   1.407       .  A
C951       Br958   1.930       .  S
C952        C953   1.412       .  A
C953        C954   1.407       .  A
C953       Br960   1.929       .  S
C954        C955   1.410       .  A
C954       Br959   1.925       .  S
C955        C956   1.403       .  A
C956       Br957   1.925       .  S
C961        C962   1.421       .  A
C961        C966   1.411       .  A
C961       Br968   1.933       .  S
C962        C963   1.411       .  A
C963        C964   1.410       .  A
C963       Br970   1.929       .  S
C964        C965   1.417       .  A
C964       Br969   1.932       .  S
C965        C966   1.411       .  A
C966       Br967   1.933       .  S
C971        C972   1.414       .  A
C971        C976   1.401       .  A
C971       Br978   1.943       .  S
C972        C973   1.416       .  A
C973        C974   1.415       .  A
C973       Br980   1.928       .  S
C974        C975   1.406       .  A
C974       Br979   1.925   1_545  S
C975        C976   1.414       .  A
C976       Br977   1.941       .  S
C981        C982   1.420       .  A
C981        C986   1.404       .  A
C981       Br988   1.922       .  S
C982        C983   1.414       .  A
C983        C984   1.418       .  A
C983       Br990   1.928       .  S
C984        C985   1.414       .  A
C984       Br989   1.925       .  S
C985        C986   1.401       .  A
C986       Br987   1.933       .  S
C991        C992   1.403       .  A
C991        C996   1.403       .  A
C991       Br998   1.935       .  S
C992        C993   1.414       .  A
C993        C994   1.418       .  A
C993      Br1000   1.925       .  S
C994        C995   1.412       .  A
C994       Br999   1.926       .  S
C995        C996   1.417       .  A
C996       Br997   1.923       .  S
C1001      C1002   1.411       .  A
C1001      C1006   1.413       .  A
C1001     Br1008   1.933       .  S
C1002      C1003   1.417       .  A
C1003      C1004   1.406       .  A
C1003     Br1010   1.925   1_556  S
C1004      C1005   1.409       .  A
C1004     Br1009   1.932       .  S
C1005      C1006   1.425       .  A
C1006     Br1007   1.935       .  S
C1011      C1012   1.402       .  A
C1011      C1016   1.406       .  A
C1011     Br1018   1.924       .  S
C1012      C1013   1.409       .  A
C1013      C1014   1.405       .  A
C1013     Br1020   1.921       .  S
C1014      C1015   1.407       .  A
C1014     Br1019   1.924       .  S
C1015      C1016   1.411       .  A
C1016     Br1017   1.922       .  S
C1021      C1022   1.413       .  A
C1021      C1026   1.406       .  A
C1021     Br1028   1.920       .  S
C1022      C1023   1.407       .  A
C1023      C1024   1.407       .  A
C1023     Br1030   1.926       .  S
C1024      C1025   1.408       .  A
C1024     Br1029   1.923       .  S
C1025      C1026   1.406       .  A
C1026     Br1027   1.930       .  S
C1031      C1032   1.415       .  A
C1031      C1036   1.415       .  A
C1031     Br1038   1.934       .  S
C1032      C1730   1.504       .  S
C1032      C2073   1.418       .  A
C1033      C2072   1.417       .  A
C1033      C1034   1.415       .  A
C1033     Br1040   1.933   1_565  S
C1034      C2075   1.423       .  A
C1034     Br1039   1.938   1_565  S
C1035      C2074   1.422       .  A
C1035      C1036   1.425       .  A
C1036     Br1037   1.939       .  S
C1041      N1042   1.370       .  A
C1041      N1046   1.371       .  A
C1041      C1100   1.501       .  S
N1042      C1043   1.368       .  A
C1043      N1044   1.355       .  A
C1043      C1694   1.483   1_554  S
N1044      C1045   1.355       .  A
C1045      N1046   1.368       .  A
Zn1047     O1051   1.935       .  S
Zn1047     O1052   2.083   1_655  S
Zn1047     O1056   2.063   1_655  S
Zn1047     O1063   2.107   1_655  S
Zn1048     O1051   1.950       .  S
Zn1048     O1053   2.039       .  S
Zn1048     O1055   2.033   1_565  S
Zn1048     O1059   1.999       .  S
Zn1049     O1051   1.935       .  S
Zn1049     O1054   2.038       .  S
Zn1049     O1057   2.007       .  S
Zn1049     O1060   2.019       .  S
Zn1050     O1051   1.925       .  S
Zn1050     O1058   2.022       .  S
Zn1050     O1061   2.034       .  S
Zn1050     O1062   2.022       .  S
O1052      C1064   1.284   1_465  A
O1053      C1065   1.275       .  A
O1054      C1066   1.275       .  A
O1055      C1064   1.278       .  A
O1056      C1066   1.282   1_455  A
O1057      C1065   1.270       .  A
O1058      C1067   1.273       .  A
O1059      C1068   1.269       .  A
O1060      C1067   1.275       .  A
O1061      C1068   1.277       .  A
O1062      C1069   1.279       .  A
O1063      C1069   1.286   1_455  A
C1065      C1555   1.515       .  S
C1066      C1670   1.484   1_654  S
C1067      C1542   1.477       .  S
C1068      C1532   1.471       .  S
C1069      C1076   1.490   1_655  S
C1070      N1591   1.367   1_554  A
C1070      N1075   1.361       .  A
C1070      C1512   1.480       .  S
N1071      C1590   1.367       .  A
N1071      C1072   1.366       .  A
C1072      N1073   1.354       .  A
C1072      C1522   1.496       .  S
N1073      C1594   1.350       .  A
C1074      N1593   1.350       .  A
C1074      N1075   1.354       .  A
C1074      C1545   1.478       .  S
C1076      N1077   1.373       .  A
C1076      N1081   1.364   1_455  A
N1077      C1078   1.372       .  A
C1078      N1079   1.360       .  A
C1078      C1101   1.489       .  S
N1079      C1080   1.356       .  A
C1080      N1081   1.356   1_455  A
C1080      C1138   1.474   1_455  S
Zn1082     O1086   1.948       .  S
Zn1082     O1087   2.039       .  S
Zn1082     O1091   2.058       .  S
Zn1082     O1098   2.120       .  S
Zn1083     O1086   1.945       .  S
Zn1083     O1088   2.069       .  S
Zn1083     O1090   2.086       .  S
Zn1083     O1094   2.048       .  S
Zn1084     O1086   1.936       .  S
Zn1084     O1089   2.081       .  S
Zn1084     O1092   2.114       .  S
Zn1084     O1095   2.060       .  S
Zn1085     O1086   1.921       .  S
Zn1085     O1093   1.975       .  S
Zn1085     O1096   1.991       .  S
Zn1085     O1097   1.941       .  S
O1087      C1099   1.277       .  A
O1088      C1100   1.284       .  A
O1089      C1101   1.286       .  A
O1090      C1099   1.283       .  A
O1091      C1101   1.284       .  A
O1092      C1100   1.291       .  A
O1093      C1102   1.267       .  A
O1094      C1103   1.277       .  A
O1095      C1102   1.276       .  A
O1096      C1103   1.268       .  A
O1097      C1104   1.259       .  A
O1098      C1104   1.283       .  A
C1099      C1113   1.486       .  S
C1102      C1482   1.488       .  S
C1103      C1492   1.482       .  S
C1104      C1502   1.520       .  S
C1105      N1106   1.365       .  A
C1105      C1465   1.505       .  S
C1107      N1108   1.347       .  A
C1107      C1472   1.488       .  S
N1108      C1109   1.343       .  A
C1109      N1110   1.360       .  A
C1109      C1495   1.471       .  S
C1111      N1112   1.368       .  A
C1111      N1116   1.373       .  A
C1111      C1171   1.493       .  S
N1112      C1113   1.359       .  A
C1113      N1114   1.357       .  A
N1114      C1115   1.363       .  A
C1115      N1116   1.371       .  A
C1115      C1134   1.492   1_455  S
Zn1117     O1121   1.939       .  S
Zn1117     O1122   2.105       .  S
Zn1117     O1126   2.082       .  S
Zn1117     O1133   2.110       .  S
Zn1118     O1121   1.925       .  S
Zn1118     O1123   2.071       .  S
Zn1118     O1125   2.032       .  S
Zn1118     O1129   2.014       .  S
Zn1119     O1121   1.905       .  S
Zn1119     O1124   1.948       .  S
Zn1119     O1127   1.978       .  S
Zn1119     O1130   1.975       .  S
Zn1120     O1121   1.954       .  S
Zn1120     O1128   2.068       .  S
Zn1120     O1131   2.072       .  S
Zn1120     O1132   2.060       .  S
O1122      C1134   1.287       .  A
O1123      C1135   1.280       .  A
O1124      C1136   1.262       .  A
O1125      C1134   1.279       .  A
O1126      C1136   1.280       .  A
O1127      C1135   1.270       .  A
O1128      C1137   1.277       .  A
O1129      C1138   1.275       .  A
O1130      C1137   1.262       .  A
O1131      C1138   1.282       .  A
O1132      C1139   1.283       .  A
O1133      C1139   1.291       .  A
C1135      C1452   1.485       .  S
C1136      C1525   1.498       .  S
C1137      C1442   1.483       .  S
C1139      C1146   1.497   1_655  S
C1140      N1141   1.360   1_545  A
C1140      N1145   1.365       .  A
C1140      C1432   1.479       .  S
N1141      C1142   1.354       .  A
C1142      N1143   1.349       .  A
C1142      C1445   1.482       .  S
N1143      C1144   1.355   1_565  A
C1144      N1145   1.365       .  A
C1144      C1535   1.478       .  S
C1146      N1147   1.372       .  A
C1146      N1151   1.367   1_455  A
N1147      C1148   1.368       .  A
C1148      N1149   1.358       .  A
C1148      C1169   1.487       .  S
N1149      C1150   1.360       .  A
C1150      N1151   1.365   1_455  A
C1150      C1586   1.485   1_455  S
Zn1152     O1156   1.932       .  S
Zn1152     O1161   2.128       .  S
Zn1152     O1168   2.082       .  S
Zn1153     O1160   2.057       .  S
Zn1153     O1164   2.073       .  S
Zn1154     O1156   1.938       .  S
Zn1154     O1159   2.016       .  S
Zn1154     O1162   2.040       .  S
Zn1154     O1165   2.056       .  S
Zn1155     O1156   1.909       .  S
Zn1155     O1163   1.992       .  S
Zn1155     O1166   2.003       .  S
Zn1155     O1167   2.004       .  S
O1157      C1169   1.286       .  A
O1158      C1170   1.271       .  A
O1159      C1171   1.278       .  A
O1160      C1169   1.283       .  A
O1161      C1171   1.290       .  A
O1162      C1170   1.278       .  A
O1163      C1172   1.267       .  A
O1164      C1173   1.279   1_565  A
O1165      C1172   1.276       .  A
O1167      C1174   1.272       .  A
O1168      C1174   1.283       .  A
C1170      C1475   1.471       .  S
C1172      C1412   1.487       .  S
C1173      C1425   1.494       .  S
C1174      C1563   1.479       .  S
C1175      N1696   1.365       .  A
C1175      N1180   1.367       .  A
C1175      C1405   1.492       .  S
N1176      C1695   1.365   1_554  A
N1176      C1177   1.360       .  A
C1177      N1178   1.349   1_554  A
C1177      C1485   1.495       .  S
N1178      C1699   1.350       .  A
C1179      N1698   1.348       .  A
C1179      N1180   1.360       .  A
C1179      C1415   1.471       .  S
C1181      N1182   1.373       .  A
C1181      N1186   1.369       .  A
C1181      C1240   1.495       .  S
N1182      C1183   1.371       .  A
C1183      N1184   1.353       .  A
C1183      C1209   1.478       .  S
N1184      C1185   1.352       .  A
C1185      N1186   1.360       .  A
C1185      C1794   1.472       .  S
Zn1187     O1191   1.956       .  S
Zn1187     O1192   2.068       .  S
Zn1187     O1196   1.990       .  S
Zn1187     O1203   2.032       .  S
Zn1188     O1191   1.913       .  S
Zn1188     O1193   1.990       .  S
Zn1188     O1195   2.005       .  S
Zn1188     O1199   2.012       .  S
Zn1189     O1191   1.938       .  S
Zn1189     O1194   2.040       .  S
Zn1189     O1197   2.043       .  S
Zn1189     O1200   2.013       .  S
Zn1190     O1191   1.934       .  S
Zn1190     O1198   2.147       .  S
Zn1190     O1201   2.114       .  S
Zn1190     O1202   2.091       .  S
O1192      C1204   1.278       .  A
O1193      C1205   1.268       .  A
O1194      C1206   1.277       .  A
O1195      C1204   1.270       .  A
O1196      C1206   1.268       .  A
O1197      C1205   1.276       .  A
O1198      C1207   1.293       .  A
O1199      C1208   1.273       .  A
O1200      C1207   1.276       .  A
O1201      C1208   1.286       .  A
O1202      C1209   1.287       .  A
O1203      C1209   1.281       .  A
C1204      C1515   1.493       .  S
C1205      C1392   1.482       .  S
C1206      C1382   1.470       .  S
C1207      C1216   1.498       .  S
C1208      C1773   1.491   1_554  S
C1210      N1215   1.367       .  A
C1212      N1213   1.345       .  A
C1212      C1372   1.502       .  S
N1213      C1734   1.344       .  A
C1214      N1733   1.344       .  A
C1214      N1215   1.358       .  A
C1214      C1395   1.466       .  S
C1216      N1217   1.373       .  A
C1216      N1221   1.371       .  A
N1217      C1218   1.364       .  A
C1218      N1219   1.353       .  A
C1218      C1313   1.483       .  S
N1219      C1220   1.355       .  A
C1220      N1221   1.369       .  A
Zn1222     O1226   1.929       .  S
Zn1222     O1227   2.024       .  S
Zn1222     O1231   2.003       .  S
Zn1222     O1238   1.994       .  S
Zn1223     O1226   1.947       .  S
Zn1223     O1228   2.131       .  S
Zn1223     O1230   2.093       .  S
Zn1223     O1234   2.085       .  S
Zn1224     O1226   1.936       .  S
Zn1224     O1229   2.029       .  S
Zn1224     O1232   2.017       .  S
Zn1224     O1235   2.023       .  S
Zn1225     O1226   1.962       .  S
Zn1225     O1233   2.017   1_565  S
Zn1225     O1236   2.035   1_565  S
Zn1225     O1237   2.047       .  S
O1227      C1239   1.275       .  A
O1228      C1240   1.290       .  A
O1229      C1241   1.272       .  A
O1230      C1239   1.283       .  A
O1231      C1241   1.272       .  A
O1232      C1240   1.277       .  A
O1233      C1242   1.271   1_545  A
O1234      C1243   1.285   1_565  A
O1235      C1242   1.275       .  A
O1236      C1243   1.278       .  A
O1237      C1244   1.276       .  A
O1238      C1244   1.271       .  A
C1239      C1290   1.489       .  S
C1241      C1362   1.473       .  S
C1242      C1355   1.473   1_565  S
C1244      C1462   1.502       .  S
C1245      N1246   1.362       .  A
C1245      N1250   1.366       .  A
C1245      C1505   1.484       .  S
N1246      C1247   1.357       .  A
C1247      N1248   1.350       .  A
C1247      C1365   1.482       .  S
N1248      C1249   1.354       .  A
C1249      N1250   1.365       .  A
C1249      C1345   1.484       .  S
C1251      N1252   1.368       .  A
C1251      N1256   1.370       .  A
C1251      C1312   1.497       .  S
N1252      C1253   1.367       .  A
C1253      N1254   1.358       .  A
C1253      C1728   1.490       .  S
N1254      C1255   1.362       .  A
C1255      N1256   1.367       .  A
C1255      C1276   1.487       .  S
Zn1257     O1261   1.922       .  S
Zn1257     O1262   2.008       .  S
Zn1257     O1266   2.031       .  S
Zn1257     O1273   2.066       .  S
Zn1258     O1261   1.946       .  S
Zn1258     O1263   2.050       .  S
Zn1258     O1265   2.069       .  S
Zn1258     O1269   2.056       .  S
Zn1259     O1261   1.938       .  S
Zn1259     O1264   2.087       .  S
Zn1259     O1267   2.113       .  S
Zn1259     O1270   2.087       .  S
Zn1260     O1261   1.901       .  S
Zn1260     O1268   1.946       .  S
Zn1260     O1271   1.981       .  S
Zn1260     O1272   1.977       .  S
O1262      C1274   1.274       .  A
O1263      C1275   1.282       .  A
O1264      C1276   1.285       .  A
O1265      C1274   1.281       .  A
O1266      C1276   1.279       .  A
O1267      C1275   1.291       .  A
O1268      C1277   1.262       .  A
O1269      C1278   1.277       .  A
O1270      C1277   1.278       .  A
O1271      C1278   1.264       .  A
O1272      C1279   1.271       .  A
O1273      C1279   1.279       .  A
C1274      C1705   1.473       .  S
C1275      C1286   1.494       .  S
C1277      C1342   1.500       .  S
C1278      C1332   1.482       .  S
C1279      C1402   1.486       .  S
C1280      N1281   1.359   1_545  A
C1280      N1805   1.364       .  A
C1280      C1422   1.481       .  S
N1281      C1282   1.356       .  A
C1282      N1803   1.353   1_565  A
C1282      C1335   1.486       .  S
N1283      C1802   1.353   1_544  A
N1283      C1284   1.357       .  A
C1284      N1285   1.366       .  A
C1284      C1352   1.486       .  S
N1285      C1800   1.366   1_554  A
C1286      N1287   1.369       .  A
C1286      N1291   1.366       .  A
N1287      C1288   1.366       .  A
C1288      N1289   1.362       .  A
C1288      C1310   1.489       .  S
N1289      C1290   1.361       .  A
C1290      N1291   1.366       .  A
Zn1292     O1296   1.929       .  S
Zn1292     O1297   1.935       .  S
Zn1292     O1301   1.977       .  S
Zn1292     O1308   2.003       .  S
Zn1293     O1296   1.955       .  S
Zn1293     O1304   2.029       .  S
Zn1294     O1296   1.941       .  S
Zn1294     O1299   2.077       .  S
Zn1294     O1305   2.112       .  S
Zn1295     O1296   1.948       .  S
Zn1295     O1303   2.057       .  S
Zn1295     O1306   2.079       .  S
Zn1295     O1307   2.025       .  S
O1298      C1310   1.283       .  A
O1299      C1311   1.277       .  A
O1300      C1309   1.281   1_565  A
O1301      C1311   1.268       .  A
O1302      C1310   1.288       .  A
O1303      C1312   1.282       .  A
O1304      C1313   1.275       .  A
O1305      C1312   1.290       .  A
O1306      C1313   1.281       .  A
O1307      C1314   1.275       .  A
O1308      C1314   1.270       .  A
C1309      C1435   1.513       .  S
C1311      C1375   1.487       .  S
C1314      C1322   1.477       .  S
C1315      N1316   1.365       .  A
C1315      N1320   1.367       .  A
C1315      C1455   1.499       .  S
N1316      C1317   1.359       .  A
C1317      N1318   1.350       .  A
C1317      C1385   1.488       .  S
N1318      C1319   1.347       .  A
C1319      N1320   1.360       .  A
C1319      C1325   1.470       .  S
C1321      C1322   1.412       .  A
C1321      C1326   1.414       .  A
C1321     Br1328   1.927       .  S
C1322      C1323   1.413       .  A
C1323      C1324   1.401       .  A
C1323     Br1330   1.935       .  S
C1324      C1325   1.408       .  A
C1324     Br1329   1.936       .  S
C1325      C1326   1.408       .  A
C1326     Br1327   1.926       .  S
C1331      C1332   1.418       .  A
C1331      C1336   1.408       .  A
C1331     Br1338   1.937       .  S
C1332      C1333   1.407       .  A
C1333      C1334   1.407       .  A
C1333     Br1340   1.931       .  S
C1334      C1335   1.413       .  A
C1334     Br1339   1.926   1_565  S
C1335      C1336   1.415       .  A
C1336     Br1337   1.936       .  S
C1341      C1342   1.414       .  A
C1341      C1346   1.411       .  A
C1341     Br1348   1.928       .  S
C1342      C1343   1.428       .  A
C1343      C1344   1.408       .  A
C1343     Br1350   1.936       .  S
C1344      C1345   1.403       .  A
C1344     Br1349   1.930       .  S
C1345      C1346   1.410       .  A
C1346     Br1347   1.925       .  S
C1351      C1352   1.413       .  A
C1351      C1356   1.408       .  A
C1351     Br1358   1.922       .  S
C1352      C1353   1.408       .  A
C1353      C1354   1.407   1_545  A
C1353     Br1360   1.923   1_545  S
C1354      C1355   1.409   1_565  A
C1354     Br1359   1.923       .  S
C1355      C1356   1.403       .  A
C1356     Br1357   1.926       .  S
C1361      C1362   1.404       .  A
C1361      C1366   1.407       .  A
C1361     Br1368   1.930       .  S
C1362      C1363   1.410       .  A
C1363      C1364   1.406       .  A
C1363     Br1370   1.925       .  S
C1364      C1365   1.412       .  A
C1364     Br1369   1.933       .  S
C1365      C1366   1.415       .  A
C1366     Br1367   1.926       .  S
C1371      C1372   1.413       .  A
C1371      C1376   1.411       .  A
C1371     Br1378   1.930       .  S
C1372      C1373   1.424       .  A
C1373      C1374   1.411       .  A
C1374      C1375   1.405       .  A
C1375      C1376   1.416       .  A
C1376     Br1377   1.931       .  S
C1381      C1382   1.410       .  A
C1381      C1386   1.408       .  A
C1381     Br1388   1.927       .  S
C1382      C1383   1.402       .  A
C1383      C1384   1.405       .  A
C1383     Br1390   1.926       .  S
C1384      C1385   1.416       .  A
C1384     Br1389   1.930       .  S
C1385      C1386   1.412       .  A
C1386     Br1387   1.930       .  S
C1391      C1392   1.417       .  A
C1391      C1396   1.398       .  A
C1391     Br1398   1.934       .  S
C1392      C1393   1.414       .  A
C1393      C1394   1.414       .  A
C1393     Br1400   1.927       .  S
C1394      C1395   1.407       .  A
C1394     Br1399   1.924       .  S
C1395      C1396   1.406       .  A
C1396     Br1397   1.938       .  S
C1401      C1402   1.412       .  A
C1401      C1406   1.413       .  A
C1401     Br1928   1.930       .  S
C1402      C1403   1.411       .  A
C1403      C1404   1.408       .  A
C1403     Br1410   1.934       .  S
C1404      C1405   1.414       .  A
C1404     Br1409   1.931       .  S
C1405      C1406   1.416       .  A
C1406     Br1927   1.931       .  S
Br1407     C1926   1.933       .  S
Br1408     C1921   1.931       .  S
C1411      C1412   1.419       .  A
C1411      C1416   1.397       .  A
C1411     Br1418   1.933       .  S
C1412      C1413   1.416       .  A
C1413      C1414   1.417       .  A
C1413     Br1420   1.928       .  S
C1414      C1415   1.407       .  A
C1414     Br1419   1.924       .  S
C1415      C1416   1.406       .  A
C1416     Br1937   1.941       .  S
Br1417     C1936   1.941   1_554  S
C1421      C1426   1.405       .  A
C1421     Br1948   1.935       .  S
C1422      C1423   1.414   1_545  A
C1423      C1424   1.417       .  A
C1423     Br1430   1.925       .  S
C1424      C1425   1.411   1_565  A
C1424     Br1429   1.927       .  S
C1426     Br1427   1.922       .  S
Br1428     C1941   1.936       .  S
C1431      C1432   1.398       .  A
C1432      C1433   1.409   1_545  A
C1433      C1434   1.418       .  A
C1433     Br1440   1.928       .  S
C1434      C1435   1.424   1_565  A
C1434     Br1439   1.932       .  S
C1436     Br1437   1.947       .  S
C1441      C1442   1.407       .  A
C1441      C1446   1.408       .  A
C1441     Br1448   1.931       .  S
C1442      C1443   1.420       .  A
C1443      C1444   1.406       .  A
C1443     Br1450   1.936       .  S
C1444      C1445   1.411       .  A
C1444     Br1449   1.937       .  S
C1445      C1446   1.414       .  A
C1446     Br1447   1.927   1_565  S
C1451      C1452   1.410       .  A
C1451      C1456   1.414       .  A
C1451     Br1458   1.932       .  S
C1452      C1453   1.409       .  A
C1453      C1454   1.409       .  A
C1453     Br1460   1.934       .  S
C1454      C1455   1.420       .  A
C1454     Br1459   1.934       .  S
C1455      C1456   1.421       .  A
C1456     Br1457   1.934       .  S
C1461      C1462   1.418       .  A
C1461      C1466   1.415       .  A
C1461     Br1468   1.936   1_565  S
C1463      C1464   1.410       .  A
C1463     Br1470   1.938       .  S
C1464     Br1469   1.934       .  S
C1465      C1466   1.420       .  A
C1466     Br1467   1.933   1_565  S
C1471      C1472   1.417       .  A
C1471      C1476   1.405       .  A
C1471     Br1478   1.931       .  S
C1472      C1473   1.412       .  A
C1473      C1474   1.407       .  A
C1473     Br1480   1.930       .  S
C1474      C1475   1.411       .  A
C1474     Br1479   1.926       .  S
C1475      C1476   1.402       .  A
C1476     Br1477   1.926       .  S
C1481      C1482   1.418       .  A
C1481      C1486   1.409       .  A
C1481     Br1488   1.934       .  S
C1482      C1483   1.408       .  A
C1483      C1484   1.410       .  A
C1483     Br1490   1.929       .  S
C1484      C1485   1.418       .  A
C1484     Br1489   1.931   1_554  S
C1485      C1486   1.414       .  A
C1486     Br1487   1.934       .  S
C1491      C1492   1.413       .  A
C1491      C1496   1.403       .  A
C1491     Br1498   1.934       .  S
C1492      C1493   1.414       .  A
C1493      C1494   1.414       .  A
C1493     Br1500   1.927       .  S
C1494      C1495   1.407       .  A
C1494     Br1499   1.926       .  S
C1495      C1496   1.409       .  A
C1496     Br1497   1.935       .  S
C1501      C1502   1.441       .  A
C1501      C1506   1.407       .  A
C1501     Br1508   1.945       .  S
C1502      C1503   1.425       .  A
C1503      C1504   1.420       .  A
C1503     Br1510   1.932       .  S
C1504      C1505   1.409       .  A
C1504     Br1509   1.928       .  S
C1505      C1506   1.397       .  A
C1506     Br1507   1.941       .  S
C1511      C1512   1.401       .  A
C1511      C1516   1.401       .  A
C1511     Br1518   1.936       .  S
C1512      C1513   1.414       .  A
C1513      C1514   1.419       .  A
C1513     Br1520   1.926   1_554  S
C1514      C1515   1.412       .  A
C1514     Br1519   1.926   1_554  S
C1515      C1516   1.417       .  A
C1516     Br1517   1.921       .  S
C1521      C1522   1.411       .  A
C1521      C1526   1.414       .  A
C1521     Br1528   1.933       .  S
C1522      C1523   1.414       .  A
C1523      C1524   1.406       .  A
C1523     Br1530   1.925       .  S
C1524      C1525   1.411       .  A
C1524     Br1529   1.932       .  S
C1525      C1526   1.427       .  A
C1526     Br1527   1.936       .  S
C1531      C1532   1.403   1_545  A
C1531      C1536   1.406       .  A
C1531     Br1538   1.924       .  S
C1532      C1533   1.410       .  A
C1533      C1534   1.406   1_565  A
C1533     Br1540   1.921       .  S
C1534      C1535   1.407       .  A
C1534     Br1539   1.924   1_545  S
C1535      C1536   1.411       .  A
C1536     Br1537   1.922       .  S
C1541      C1542   1.413       .  A
C1541      C1546   1.406       .  A
C1541     Br1548   1.921       .  S
C1542      C1543   1.407       .  A
C1543      C1544   1.406       .  A
C1543     Br1550   1.926       .  S
C1544      C1545   1.408       .  A
C1544     Br1549   1.923       .  S
C1545      C1546   1.407       .  A
C1546     Br1547   1.930       .  S
C1551      C1552   1.413       .  A
C1551      C1556   1.414       .  A
C1551     Br1558   1.934       .  S
C1553      C1554   1.416       .  A
C1553     Br1560   1.936       .  S
C1554     Br1559   1.939       .  S
C1555      C1556   1.427       .  A
C1556     Br1557   1.941   1_554  S
C1561      N1562   1.367       .  A
C1561      N1566   1.372       .  A
C1561      C1620   1.500       .  S
N1562      C1563   1.366       .  A
C1563      N1564   1.355       .  A
N1564      C1565   1.356       .  A
C1565      N1566   1.369       .  A
Zn1567     O1571   1.937       .  S
Zn1567     O1572   2.091   1_655  S
Zn1567     O1576   2.068   1_655  S
Zn1567     O1583   2.121   1_655  S
Zn1568     O1571   1.951       .  S
Zn1568     O1573   2.043       .  S
Zn1568     O1575   2.039   1_565  S
Zn1568     O1579   2.001       .  S
Zn1569     O1571   1.938       .  S
Zn1569     O1574   2.041       .  S
Zn1569     O1577   2.012       .  S
Zn1569     O1580   2.019       .  S
Zn1570     O1571   1.925       .  S
Zn1570     O1578   2.018       .  S
Zn1570     O1581   2.031       .  S
Zn1570     O1582   2.024       .  S
O1572      C1584   1.286   1_465  A
O1573      C1585   1.276       .  A
O1574      C1586   1.278       .  A
O1575      C1584   1.279       .  A
O1576      C1586   1.281   1_455  A
O1577      C1585   1.270       .  A
O1578      C1587   1.273       .  A
O1579      C1588   1.269       .  A
O1580      C1587   1.275       .  A
O1581      C1588   1.276       .  A
O1582      C1589   1.278       .  A
O1583      C1589   1.288   1_455  A
C1585      C2075   1.516       .  S
C1587      C2062   1.476       .  S
C1588      C2052   1.471       .  S
C1589      C1596   1.496   1_655  S
C1590      N1595   1.361       .  A
C1590      C2032   1.480       .  S
N1591      C1592   1.366       .  A
C1592      N1593   1.354   1_556  A
C1592      C2042   1.498       .  S
C1594      N1595   1.354       .  A
C1594      C2065   1.477       .  S
C1596      N1597   1.374       .  A
C1596      N1601   1.367   1_455  A
N1597      C1598   1.373       .  A
C1598      N1599   1.359       .  A
C1598      C1621   1.490       .  S
N1599      C1600   1.355       .  A
C1600      N1601   1.358   1_455  A
C1600      C1658   1.479   1_455  S
Zn1602     O1606   1.953       .  S
Zn1602     O1607   2.029       .  S
Zn1602     O1611   2.052       .  S
Zn1602     O1618   2.098       .  S
Zn1603     O1606   1.956       .  S
Zn1603     O1608   2.052       .  S
Zn1603     O1610   2.081       .  S
Zn1603     O1614   2.024       .  S
Zn1604     O1606   1.947       .  S
Zn1604     O1609   2.088       .  S
Zn1604     O1612   2.118       .  S
Zn1604     O1615   2.061       .  S
Zn1605     O1606   1.941       .  S
Zn1605     O1613   1.990       .  S
Zn1605     O1616   2.002       .  S
Zn1605     O1617   1.966       .  S
O1607      C1619   1.275       .  A
O1608      C1620   1.280       .  A
O1609      C1621   1.286       .  A
O1610      C1619   1.282       .  A
O1611      C1621   1.283       .  A
O1612      C1620   1.290       .  A
O1613      C1622   1.270       .  A
O1614      C1623   1.275       .  A
O1615      C1622   1.277       .  A
O1616      C1623   1.271       .  A
O1617      C1624   1.266       .  A
O1618      C1624   1.281       .  A
C1619      C1633   1.482       .  S
C1622      C2002   1.492       .  S
C1623      C2012   1.481       .  S
C1624      C2022   1.503       .  S
C1625      N1626   1.367       .  A
C1625      C1985   1.515       .  S
C1627      N1628   1.346       .  A
C1627      C1992   1.489       .  S
N1628      C1629   1.343       .  A
C1629      N1630   1.361       .  A
C1629      C2015   1.476       .  S
C1631      N1632   1.368       .  A
C1631      N1636   1.375       .  A
C1631      C1691   1.498       .  S
N1632      C1633   1.360       .  A
C1633      N1634   1.355       .  A
N1634      C1635   1.360       .  A
C1635      N1636   1.373       .  A
C1635      C1654   1.492   1_455  S
Zn1637     O1641   1.943       .  S
Zn1637     O1642   2.101       .  S
Zn1637     O1646   2.075       .  S
Zn1637     O1653   2.106       .  S
Zn1638     O1641   1.931       .  S
Zn1638     O1643   2.078       .  S
Zn1638     O1645   2.038       .  S
Zn1638     O1649   2.025       .  S
Zn1639     O1641   1.909       .  S
Zn1639     O1644   1.947       .  S
Zn1639     O1647   1.968       .  S
Zn1639     O1650   1.975       .  S
Zn1640     O1641   1.955       .  S
Zn1640     O1648   2.062       .  S
Zn1640     O1651   2.075       .  S
Zn1640     O1652   2.061       .  S
O1642      C1654   1.286       .  A
O1643      C1655   1.281       .  A
O1644      C1656   1.262       .  A
O1645      C1654   1.280       .  A
O1646      C1656   1.279       .  A
O1647      C1655   1.269       .  A
O1648      C1657   1.277       .  A
O1649      C1658   1.276       .  A
O1650      C1657   1.262       .  A
O1651      C1658   1.282       .  A
O1652      C1659   1.284       .  A
O1653      C1659   1.289       .  A
C1655      C1972   1.483       .  S
C1656      C2045   1.492       .  S
C1657      C1962   1.482       .  S
C1659      C1666   1.497   1_655  S
C1660      N1661   1.360   1_545  A
C1660      N1665   1.365       .  A
C1660      C1952   1.479       .  S
N1661      C1662   1.355       .  A
C1662      N1663   1.351       .  A
C1662      C1965   1.484       .  S
N1663      C1664   1.356   1_565  A
C1664      N1665   1.365       .  A
C1664      C2055   1.480       .  S
C1666      N1667   1.369       .  A
C1666      N1671   1.369   1_455  A
N1667      C1668   1.369       .  A
C1668      N1669   1.358       .  A
C1668      C1689   1.483       .  S
N1669      C1670   1.355       .  A
C1670      N1671   1.367   1_455  A
Zn1672     O1676   1.928       .  S
Zn1672     O1681   2.129       .  S
Zn1672     O1688   2.085       .  S
Zn1673     O1680   2.048       .  S
Zn1673     O1684   2.076       .  S
Zn1674     O1676   1.940       .  S
Zn1674     O1679   2.032       .  S
Zn1674     O1682   2.055       .  S
Zn1674     O1685   2.063       .  S
Zn1675     O1676   1.909       .  S
Zn1675     O1683   1.992       .  S
Zn1675     O1686   2.002       .  S
Zn1675     O1687   2.012       .  S
O1677      C1689   1.287       .  A
O1678      C1690   1.270       .  A
O1679      C1691   1.280       .  A
O1680      C1689   1.282       .  A
O1681      C1691   1.290       .  A
O1682      C1690   1.280       .  A
O1683      C1692   1.268       .  A
O1684      C1693   1.280   1_565  A
O1685      C1692   1.277       .  A
O1687      C1694   1.272       .  A
O1688      C1694   1.283       .  A
C1690      C1995   1.474       .  S
C1692      C1932   1.488       .  S
C1693      C1945   1.493       .  S
C1695      N1700   1.366       .  A
C1695      C1925   1.494       .  S
N1696      C1697   1.360       .  A
C1697      N1698   1.348       .  A
C1697      C2005   1.494       .  S
C1699      N1700   1.359       .  A
C1699      C1935   1.472       .  S
C1701      N1702   1.374       .  A
C1701      N1706   1.369       .  A
C1701      C1760   1.497       .  S
N1702      C1703   1.373       .  A
C1703      N1704   1.353       .  A
C1703      C1729   1.480       .  S
N1704      C1705   1.352       .  A
C1705      N1706   1.359       .  A
Zn1707     O1711   1.955       .  S
Zn1707     O1712   2.061       .  S
Zn1707     O1716   1.989       .  S
Zn1707     O1723   2.034       .  S
Zn1708     O1711   1.916       .  S
Zn1708     O1713   1.996       .  S
Zn1708     O1715   2.002       .  S
Zn1708     O1719   2.009       .  S
Zn1709     O1711   1.938       .  S
Zn1709     O1714   2.032       .  S
Zn1709     O1717   2.043       .  S
Zn1709     O1720   2.008       .  S
Zn1710     O1711   1.935       .  S
Zn1710     O1718   2.142       .  S
Zn1710     O1721   2.114       .  S
Zn1710     O1722   2.094       .  S
O1712      C1724   1.278       .  A
O1713      C1725   1.269       .  A
O1714      C1726   1.276       .  A
O1715      C1724   1.270       .  A
O1716      C1726   1.268       .  A
O1717      C1725   1.275       .  A
O1718      C1727   1.292       .  A
O1719      C1728   1.272       .  A
O1720      C1727   1.276       .  A
O1721      C1728   1.286       .  A
O1722      C1729   1.287       .  A
O1723      C1729   1.280       .  A
C1724      C2035   1.491       .  S
C1725      C1912   1.483       .  S
C1726      C1902   1.468       .  S
C1727      C1736   1.495       .  S
C1730      N1735   1.367       .  A
C1732      N1733   1.345       .  A
C1732      C1892   1.498   1_554  S
C1734      N1735   1.359       .  A
C1734      C1915   1.468       .  S
C1736      N1737   1.372       .  A
C1736      N1741   1.370       .  A
N1737      C1738   1.363       .  A
C1738      N1739   1.353       .  A
C1738      C1833   1.481       .  S
N1739      C1740   1.355       .  A
C1740      N1741   1.368       .  A
Zn1742     O1746   1.932       .  S
Zn1742     O1747   2.038       .  S
Zn1742     O1751   2.006       .  S
Zn1742     O1758   2.002       .  S
Zn1743     O1746   1.947       .  S
Zn1743     O1748   2.136       .  S
Zn1743     O1750   2.091       .  S
Zn1743     O1754   2.080       .  S
Zn1744     O1746   1.934       .  S
Zn1744     O1749   2.017       .  S
Zn1744     O1752   2.014       .  S
Zn1744     O1755   2.022       .  S
Zn1745     O1746   1.961       .  S
Zn1745     O1753   2.023   1_565  S
Zn1745     O1756   2.033   1_565  S
Zn1745     O1757   2.052       .  S
O1747      C1759   1.276       .  A
O1748      C1760   1.290       .  A
O1749      C1761   1.271       .  A
O1750      C1759   1.283       .  A
O1751      C1761   1.273       .  A
O1752      C1760   1.277       .  A
O1753      C1762   1.271   1_545  A
O1754      C1763   1.286   1_565  A
O1755      C1762   1.274       .  A
O1756      C1763   1.279       .  A
O1757      C1764   1.276       .  A
O1758      C1764   1.272       .  A
C1759      C1810   1.492       .  S
C1761      C1882   1.469       .  S
C1762      C1875   1.475   1_565  S
C1764      C1982   1.505       .  S
C1765      N1766   1.362       .  A
C1765      N1770   1.364       .  A
C1765      C2025   1.480       .  S
N1766      C1767   1.359       .  A
C1767      N1768   1.352       .  A
C1767      C1885   1.477       .  S
N1768      C1769   1.353       .  A
C1769      N1770   1.362       .  A
C1769      C1865   1.487       .  S
C1771      N1772   1.368       .  A
C1771      N1776   1.371       .  A
C1771      C1832   1.498       .  S
N1772      C1773   1.368       .  A
C1773      N1774   1.358       .  A
N1774      C1775   1.362       .  A
C1775      N1776   1.367       .  A
C1775      C1796   1.489       .  S
Zn1777     O1781   1.925       .  S
Zn1777     O1782   2.011   1_556  S
Zn1777     O1786   2.032       .  S
Zn1777     O1793   2.063       .  S
Zn1778     O1781   1.946       .  S
Zn1778     O1783   2.052       .  S
Zn1778     O1785   2.066       .  S
Zn1778     O1789   2.055       .  S
Zn1779     O1781   1.940       .  S
Zn1779     O1784   2.094       .  S
Zn1779     O1787   2.110       .  S
Zn1779     O1790   2.080       .  S
Zn1780     O1781   1.907       .  S
Zn1780     O1788   1.951       .  S
Zn1780     O1791   1.981       .  S
Zn1780     O1792   1.978       .  S
O1782      C1794   1.274       .  A
O1783      C1795   1.283       .  A
O1784      C1796   1.286       .  A
O1785      C1794   1.280   1_556  A
O1786      C1796   1.279       .  A
O1787      C1795   1.291       .  A
O1788      C1797   1.263       .  A
O1789      C1798   1.276       .  A
O1790      C1797   1.278       .  A
O1791      C1798   1.264       .  A
O1792      C1799   1.270       .  A
O1793      C1799   1.279       .  A
C1795      C1806   1.494       .  S
C1797      C1862   1.497       .  S
C1798      C1852   1.483       .  S
C1799      C1922   1.483       .  S
C1800      N1801   1.359   1_545  A
C1800      C1942   1.482       .  S
N1801      C1802   1.355       .  A
C1802      C1855   1.488       .  S
N1803      C1804   1.356       .  A
C1804      N1805   1.364       .  A
C1804      C1872   1.484       .  S
C1806      N1807   1.368       .  A
C1806      N1811   1.368       .  A
N1807      C1808   1.365       .  A
C1808      N1809   1.363       .  A
C1808      C1830   1.489       .  S
N1809      C1810   1.362       .  A
C1810      N1811   1.367       .  A
Zn1812     O1816   1.925       .  S
Zn1812     O1817   1.941       .  S
Zn1812     O1821   1.973       .  S
Zn1812     O1828   1.998       .  S
Zn1813     O1816   1.951       .  S
Zn1813     O1824   2.028       .  S
Zn1814     O1816   1.938       .  S
Zn1814     O1819   2.082       .  S
Zn1814     O1825   2.124       .  S
Zn1815     O1816   1.947       .  S
Zn1815     O1823   2.046       .  S
Zn1815     O1826   2.073       .  S
Zn1815     O1827   2.023       .  S
O1818      C1830   1.283       .  A
O1819      C1831   1.278       .  A
O1820      C1829   1.282       .  A
O1821      C1831   1.267       .  A
O1822      C1830   1.288       .  A
O1823      C1832   1.281       .  A
O1824      C1833   1.275       .  A
O1825      C1832   1.292       .  A
O1826      C1833   1.281       .  A
O1827      C1834   1.275       .  A
O1828      C1834   1.270       .  A
C1829      C1955   1.516       .  S
C1831      C1895   1.489       .  S
C1834      C1842   1.475       .  S
C1835      N1836   1.363       .  A
C1835      N1840   1.367       .  A
C1835      C1975   1.494       .  S
N1836      C1837   1.357       .  A
C1837      N1838   1.349       .  A
C1837      C1905   1.487       .  S
N1838      C1839   1.347       .  A
C1839      N1840   1.361       .  A
C1839      C1845   1.469       .  S
C1841      C1842   1.412       .  A
C1841      C1846   1.414       .  A
C1841     Br1848   1.928       .  S
C1842      C1843   1.412       .  A
C1843      C1844   1.399       .  A
C1843     Br1850   1.936       .  S
C1844      C1845   1.408       .  A
C1844     Br1849   1.935       .  S
C1845      C1846   1.409       .  A
C1846     Br1847   1.926       .  S
C1851      C1852   1.419       .  A
C1851      C1856   1.408       .  A
C1851     Br1858   1.937       .  S
C1852      C1853   1.407       .  A
C1853      C1854   1.407       .  A
C1853     Br1860   1.931       .  S
C1854      C1855   1.413       .  A
C1854     Br1859   1.925   1_565  S
C1855      C1856   1.415       .  A
C1856     Br1857   1.937       .  S
C1861      C1862   1.414       .  A
C1861      C1866   1.410       .  A
C1861     Br1868   1.929       .  S
C1862      C1863   1.427       .  A
C1863      C1864   1.408       .  A
C1863     Br1870   1.935       .  S
C1864      C1865   1.406       .  A
C1864     Br1869   1.933       .  S
C1865      C1866   1.411       .  A
C1866     Br1867   1.926       .  S
C1871      C1872   1.414       .  A
C1871      C1876   1.410       .  A
C1871     Br1878   1.923       .  S
C1872      C1873   1.407       .  A
C1873      C1874   1.405   1_545  A
C1873     Br1880   1.926   1_545  S
C1874      C1875   1.409   1_565  A
C1874     Br1879   1.920       .  S
C1875      C1876   1.404       .  A
C1876     Br1877   1.925       .  S
C1881      C1882   1.402       .  A
C1881      C1886   1.408       .  A
C1881     Br1888   1.928       .  S
C1882      C1883   1.407       .  A
C1883      C1884   1.402       .  A
C1883     Br1890   1.921       .  S
C1884      C1885   1.409       .  A
C1884     Br1889   1.929       .  S
C1885      C1886   1.415       .  A
C1886     Br1887   1.924       .  S
C1891      C1892   1.411       .  A
C1891      C1896   1.411       .  A
C1891     Br1898   1.930       .  S
C1892      C1893   1.421       .  A
C1893      C1894   1.411       .  A
C1894      C1895   1.406       .  A
C1895      C1896   1.417       .  A
C1896     Br1897   1.931       .  S
C1901      C1902   1.409       .  A
C1901      C1906   1.407       .  A
C1901     Br1908   1.928       .  S
C1902      C1903   1.401       .  A
C1903      C1904   1.404       .  A
C1903     Br1910   1.927       .  S
C1904      C1905   1.416       .  A
C1904     Br1909   1.930       .  S
C1905      C1906   1.415       .  A
C1906     Br1907   1.932       .  S
C1911      C1912   1.416       .  A
C1911      C1916   1.398       .  A
C1911     Br1918   1.934       .  S
C1912      C1913   1.414       .  A
C1913      C1914   1.414       .  A
C1913     Br1920   1.928       .  S
C1914      C1915   1.408       .  A
C1914     Br1919   1.924       .  S
C1915      C1916   1.408       .  A
C1916     Br1917   1.938       .  S
C1921      C1922   1.409       .  A
C1921      C1926   1.412       .  A
C1922      C1923   1.410       .  A
C1923      C1924   1.409       .  A
C1923     Br1930   1.934   1_556  S
C1924      C1925   1.417       .  A
C1924     Br1929   1.932   1_556  S
C1925      C1926   1.419       .  A
C1931      C1932   1.419       .  A
C1931      C1936   1.395       .  A
C1931     Br1938   1.933       .  S
C1932      C1933   1.418       .  A
C1933      C1934   1.418       .  A
C1933     Br1940   1.927       .  S
C1934      C1935   1.407       .  A
C1934     Br1939   1.924       .  S
C1935      C1936   1.404       .  A
C1941      C1946   1.405       .  A
C1942      C1943   1.415   1_546  A
C1943      C1944   1.418   1_554  A
C1943     Br1950   1.925       .  S
C1944      C1945   1.411   1_565  A
C1944     Br1949   1.927   1_556  S
C1946     Br1947   1.925       .  S
C1951      C1952   1.398       .  A
C1952      C1953   1.408   1_545  A
C1953      C1954   1.418       .  A
C1953     Br1960   1.929       .  S
C1954      C1955   1.425   1_565  A
C1954     Br1959   1.932       .  S
C1956     Br1957   1.945       .  S
C1961      C1962   1.406       .  A
C1961      C1966   1.407       .  A
C1961     Br1968   1.931       .  S
C1962      C1963   1.419       .  A
C1963      C1964   1.407       .  A
C1963     Br1970   1.936       .  S
C1964      C1965   1.412       .  A
C1964     Br1969   1.936       .  S
C1965      C1966   1.414       .  A
C1966     Br1967   1.925   1_565  S
C1971      C1972   1.409       .  A
C1971      C1976   1.414       .  A
C1971     Br1978   1.930       .  S
C1972      C1973   1.409       .  A
C1973      C1974   1.407       .  A
C1973     Br1980   1.934       .  S
C1974      C1975   1.418       .  A
C1974     Br1979   1.934       .  S
C1975      C1976   1.419       .  A
C1976     Br1977   1.931       .  S
C1981      C1982   1.418       .  A
C1981      C1986   1.417       .  A
C1981     Br1988   1.938   1_565  S
C1983      C1984   1.413       .  A
C1983     Br1990   1.938       .  S
C1984     Br1989   1.936       .  S
C1985      C1986   1.425       .  A
C1986     Br1987   1.936   1_565  S
C1991      C1992   1.418       .  A
C1991      C1996   1.407       .  A
C1991     Br1998   1.931       .  S
C1992      C1993   1.412       .  A
C1993      C1994   1.407       .  A
C1993     Br2000   1.929       .  S
C1994      C1995   1.410       .  A
C1994     Br1999   1.925       .  S
C1995      C1996   1.403       .  A
C1996     Br1997   1.926       .  S
C2001      C2002   1.421       .  A
C2001      C2006   1.410       .  A
C2001     Br2008   1.933       .  S
C2002      C2003   1.411       .  A
C2003      C2004   1.410       .  A
C2003     Br2010   1.929       .  S
C2004      C2005   1.416       .  A
C2004     Br2009   1.932       .  S
C2005      C2006   1.411       .  A
C2006     Br2007   1.933       .  S
C2011      C2012   1.414       .  A
C2011      C2016   1.401       .  A
C2011     Br2018   1.942       .  S
C2012      C2013   1.417       .  A
C2013      C2014   1.415       .  A
C2013     Br2020   1.928       .  S
C2014      C2015   1.406       .  A
C2014     Br2019   1.925       .  S
C2015      C2016   1.414       .  A
C2016     Br2017   1.941       .  S
C2021      C2022   1.425       .  A
C2021      C2026   1.404       .  A
C2021     Br2028   1.924       .  S
C2022      C2023   1.417       .  A
C2023      C2024   1.418       .  A
C2023     Br2030   1.928       .  S
C2024      C2025   1.412       .  A
C2024     Br2029   1.926       .  S
C2025      C2026   1.398       .  A
C2026     Br2027   1.934       .  S
C2031      C2032   1.402       .  A
C2031      C2036   1.402       .  A
C2031     Br2038   1.936       .  S
C2032      C2033   1.414       .  A
C2033      C2034   1.417       .  A
C2033     Br2040   1.925       .  S
C2034      C2035   1.411       .  A
C2034     Br2039   1.927       .  S
C2035      C2036   1.417       .  A
C2036     Br2037   1.924       .  S
C2041      C2042   1.412       .  A
C2041      C2046   1.413       .  A
C2041     Br2048   1.933       .  S
C2042      C2043   1.416       .  A
C2043      C2044   1.404       .  A
C2043     Br2050   1.925   1_556  S
C2044      C2045   1.409       .  A
C2044     Br2049   1.932       .  S
C2045      C2046   1.425       .  A
C2046     Br2047   1.935       .  S
C2051      C2052   1.402   1_545  A
C2051      C2056   1.406       .  A
C2051     Br2058   1.925       .  S
C2052      C2053   1.409       .  A
C2053      C2054   1.406   1_565  A
C2053     Br2060   1.923       .  S
C2054      C2055   1.408       .  A
C2054     Br2059   1.924   1_545  S
C2055      C2056   1.412       .  A
C2056     Br2057   1.922       .  S
C2061      C2062   1.414       .  A
C2061      C2066   1.406       .  A
C2061     Br2068   1.923       .  S
C2062      C2063   1.407       .  A
C2063      C2064   1.406       .  A
C2063     Br2070   1.926       .  S
C2064      C2065   1.407       .  A
C2064     Br2069   1.923       .  S
C2065      C2066   1.406       .  A
C2066     Br2067   1.929       .  S
C2071      C2072   1.414       .  A
C2071      C2076   1.416       .  A
C2071     Br2078   1.934       .  S
C2073      C2074   1.415       .  A
C2073     Br2080   1.934       .  S
C2074     Br2079   1.939       .  S
C2075      C2076   1.427       .  A
C2076     Br2077   1.940       .  S
