geometry optimzed in LAMMPS
_audit_creation_date              2020-11-30 
_audit_creation_method            'lammps2cif' 
_symmetry_space_group_name_H-M    'P1' 
_symmetry_Int_Tables_number       1 
_symmetry_cell_setting            triclinic 
loop_ 
_symmetry_equiv_pos_as_xyz 
  x,y,z 
_cell_length_a                    34.53198096 
_cell_length_b                    34.43279701632093 
_cell_length_c                    34.576712337976964 
_cell_angle_alpha                 88.6507812652805 
_cell_angle_beta                  88.48038797150922 
_cell_angle_gamma                 91.29071115283843 
loop_ 
_atom_site_label 
_atom_site_type_symbol 
_atom_site_fract_x 
_atom_site_fract_y 
_atom_site_fract_z 
_atom_site_charge 
O1          O  0.53703731  0.05244930  0.86017270    -0.81100
O2          O  0.52563206  0.05968412  0.63943329    -0.82600
O3          O  0.61114438  0.04483762  0.73905387    -0.79600
O4          O  0.52184277  0.13297717  0.75506217    -0.78000
O5          O  0.45582978  0.13387772  0.75778685    -0.79800
O6          O  0.60997326  0.97848499  0.74079455    -0.80700
O7          O  0.55736748  0.09517103  0.68404955    -0.82100
O8          O  0.57164306  0.08474530  0.81156108    -0.82300
Eu9        Eu  0.54394042  0.06589473  0.74898704     2.39200
O10         O  0.48787707  0.06468901  0.71190632    -0.89900
O11         O  0.54375918  0.00986063  0.78919209    -0.93500
C12         C  0.56388847  0.07676246  0.84778385     1.01200
C13         C  0.54773362  0.08838667  0.64889049     1.01000
C14         C  0.62784338  0.01178661  0.73635840     1.01000
C15         C  0.48966782  0.15095510  0.75892451     0.98800
H16         H  0.56457677  0.01077348  0.69217534     0.28600
O17         O  0.54272765  0.01022625  0.71022720    -1.02200
H18         H  0.48959284  0.08654540  0.80723011     0.28600
O19         O  0.48900902  0.06419655  0.79086312    -1.04800
O20         O  0.44130900  0.96155062  0.64513234    -0.82000
O21         O  0.43502220  0.97080660  0.86549720    -0.81600
O22         O  0.56088180  0.92859716  0.68794934    -0.80000
O23         O  0.41341536  0.08970424  0.68984180    -0.83300
O24         O  0.40780222  0.08098368  0.81719916    -0.81200
O25         O  0.57209574  0.93487781  0.81200650    -0.79800
O26         O  0.45197042  0.88577368  0.76356523    -0.81400
O27         O  0.36412652  0.97559574  0.74886141    -0.83300
O28         O  0.51814592  0.88692568  0.75928773    -0.80000
O29         O  0.36444143  0.04192242  0.74675706    -0.82700
O30         O  0.53023260  0.96314795  0.64109503    -0.78400
O31         O  0.53735322  0.96339837  0.86011648    -0.78500
O32         O  0.44525966  0.05281705  0.86356786    -0.78100
O33         O  0.44119014  0.05261715  0.64281662    -0.81600
O34         O  0.41164966  0.92591363  0.69472392    -0.81000
O35         O  0.40013798  0.93966472  0.82009350    -0.79400
Eu36       Eu  0.48643133  0.00870721  0.67374944     2.39800
Eu37       Eu  0.48917815  0.00810288  0.83145190     2.39600
Eu38       Eu  0.54249718  0.95436513  0.75115426     2.38400
Eu39       Eu  0.43281956  0.06484138  0.75314293     2.39900
Eu40       Eu  0.43101263  0.95322053  0.75631210     2.39800
O41         O  0.43348857  0.00897414  0.79353740    -0.93800
O42         O  0.48607660  0.95326218  0.71469224    -0.92700
C43         C  0.41852825  0.93384958  0.65853627     1.01400
C44         C  0.40558242  0.94969545  0.85522516     1.00100
C45         C  0.55363268  0.93656263  0.65224663     0.99500
C46         C  0.41922607  0.08000661  0.65442601     1.01500
C47         C  0.41746522  0.07446550  0.85242522     1.00400
C48         C  0.56513726  0.94150759  0.84798488     0.99300
C49         C  0.48499723  0.86901475  0.76409923     0.99300
C50         C  0.34708163  0.00831963  0.74425034     1.02000
H51         H  0.48722095  0.93013312  0.81125363     0.29300
O52         O  0.48742350  0.95246077  0.79378173    -1.05900
H53         H  0.40962184  0.00827281  0.69890393     0.31400
O54         O  0.43185482  0.00868965  0.71526432    -1.08500
C55         C  0.68569358  0.20795911  0.49733215     0.85600
C56         C  0.66488713  0.18805626  0.53273453    -0.54700
C57         C  0.62569397  0.18414061  0.52962097     0.08500
C58         C  0.61073366  0.19885813  0.49033858     0.19400
C59         C  0.67395991  0.18221303  0.46349033    -0.55400
C60         C  0.63483270  0.17774200  0.45978236     0.08600
C61         C  0.66405951  0.24578450  0.49171196    -0.54900
C62         C  0.62525253  0.24129156  0.48679243     0.09200
H63         H  0.67896696  0.17594072  0.55762506     0.13700
H64         H  0.57914431  0.19458835  0.48662512    -0.00600
H65         H  0.69473538  0.16857441  0.44432459     0.14000
H66         H  0.67865936  0.27410937  0.49074180     0.13800
O67         O  0.53833758  0.05283117  0.36019113    -0.81100
O68         O  0.54017614  0.04720952  0.13895135    -0.82600
O69         O  0.61532927  0.03807774  0.26011933    -0.79600
O70         O  0.52680958  0.12824864  0.24057143    -0.78000
O71         O  0.46073739  0.12750508  0.23913037    -0.79800
O72         O  0.61328230  0.97174498  0.26243772    -0.80700
O73         O  0.57563123  0.07847380  0.18395853    -0.82100
O74         O  0.56945999  0.08780284  0.31105195    -0.82300
Eu75       Eu  0.54910379  0.06110834  0.24888907     2.39200
O76         O  0.49347812  0.06071706  0.21059697    -0.89900
O77         O  0.54686492  0.00603486  0.29005153    -0.93500
C78         C  0.56245157  0.07963842  0.34729973     1.01200
C79         C  0.56793197  0.07046290  0.14859844     1.01000
C80         C  0.63128629  0.00480409  0.26550714     1.01000
C81         C  0.49408499  0.14508926  0.23638582     0.98800
H82         H  0.57118294  0.00406205  0.19585807     0.28600
O83         O  0.54782575  0.00461888  0.21181461    -1.02200
H84         H  0.49365063  0.08612712  0.30265760     0.28600
O85         O  0.49286965  0.06242961  0.28828869    -1.04800
O86         O  0.44622884  0.95883170  0.14475743    -0.82000
O87         O  0.44786886  0.96170216  0.36599386    -0.81600
O88         O  0.57050100  0.92870804  0.19049835    -0.80000
O89         O  0.41060218  0.07915741  0.18696818    -0.83300
O90         O  0.41898862  0.09047109  0.31167177    -0.81200
O91         O  0.56216265  0.92378695  0.31745751    -0.79800
O92         O  0.45462989  0.88223538  0.24863707    -0.81400
O93         O  0.36825408  0.97020561  0.26504137    -0.83300
O94         O  0.52066003  0.88202850  0.24548965    -0.80000
O95         O  0.37025222  0.03673312  0.26365843    -0.82700
O96         O  0.53526291  0.95812611  0.14312790    -0.78400
O97         O  0.53398764  0.96153273  0.36304581    -0.78500
O98         O  0.44918237  0.05726783  0.35959160    -0.78100
O99         O  0.44495679  0.04713313  0.14045485    -0.81600
O100        O  0.41069942  0.92839329  0.19362002    -0.81000
O101        O  0.41631895  0.92503978  0.32147278    -0.79400
Eu102      Eu  0.49176094  0.00464518  0.17352200     2.39800
Eu103      Eu  0.49160500  0.00786446  0.33063827     2.39600
Eu104      Eu  0.54566436  0.94938666  0.25342024     2.38400
Eu105      Eu  0.43710905  0.06081985  0.25035185     2.39900
Eu106      Eu  0.43500501  0.94970905  0.25600826     2.39800
O107        O  0.43601963  0.00640615  0.29277577    -0.93800
O108        O  0.49044914  0.94999900  0.21551033    -0.92700
C109        C  0.41944138  0.93479157  0.15743618     1.01400
C110        C  0.42455106  0.93399220  0.35642327     1.00100
C111        C  0.56169691  0.93514486  0.15497099     0.99500
C112        C  0.41822395  0.07057293  0.15142610     1.01500
C113        C  0.42655909  0.08429053  0.34752048     1.00400
C114        C  0.55544830  0.93312762  0.35291897     0.99300
C115        C  0.48699366  0.86495683  0.24341395     0.99300
C116        C  0.35246159  0.00349665  0.26856614     1.02000
H117        H  0.48954836  0.92744562  0.31038020     0.29300
O118        O  0.49022497  0.95051669  0.29396497    -1.05900
H119        H  0.41218635  0.00387374  0.19888433     0.31400
O120        O  0.43541421  0.00441954  0.21382348    -1.08500
C121        C  0.29532631  0.81162241  0.00617788     0.85600
C122        C  0.30946318  0.83741192  0.97164596    -0.54700
C123        C  0.30953527  0.87668837  0.97769411     0.08500
C124        C  0.29395121  0.88643662  0.01880282     0.19400
C125        C  0.32126259  0.82441805  0.03931057    -0.55400
C126        C  0.32050128  0.86322236  0.04601477     0.08600
C127        C  0.25569373  0.82635675  0.01809734    -0.54900
C128        C  0.25368248  0.86532932  0.02341557     0.09200
H129        H  0.32043918  0.82508691  0.94499749     0.13700
H130        H  0.29291513  0.91791064  0.02420732    -0.00600
H131        H  0.33929391  0.80568154  0.05631532     0.14000
H132        H  0.23035435  0.80705980  0.02082293     0.13800
C133        C  0.69174255  0.81663539  0.00172764     0.85600
C134        C  0.66499520  0.82663276  0.03653537    -0.54700
C135        C  0.65576864  0.86485384  0.03810126     0.08500
C136        C  0.67383184  0.89001632  0.00496366     0.19400
C137        C  0.66901511  0.83188283  0.96667049    -0.55400
C138        C  0.65981243  0.87047429  0.96802323     0.08600
C139        C  0.72663367  0.84445393  0.00487831    -0.54900
C140        C  0.71710448  0.88245550  0.00742688     0.09200
H141        H  0.65387348  0.80585022  0.05823408     0.13700
H142        H  0.66746642  0.92138118  0.00641793    -0.00600
H143        H  0.65925902  0.81337771  0.94373885     0.14000
H144        H  0.75623642  0.83473514  0.00707869     0.13800
C145        C  0.68243936  0.80655297  0.50516671     0.85600
C146        C  0.67015307  0.83036704  0.46930870    -0.54700
C147        C  0.63154579  0.83905907  0.46916506     0.08500
C148        C  0.60864211  0.82330294  0.50499757     0.19400
C149        C  0.66872528  0.83096047  0.53981721    -0.55400
C150        C  0.63037198  0.83997646  0.53944174     0.08600
C151        C  0.65449812  0.77100642  0.50757362    -0.54900
C152        C  0.61617641  0.77954539  0.50578564     0.09200
H153        H  0.69073355  0.84062368  0.44689648     0.13700
H154        H  0.57730296  0.82991790  0.50511265    -0.00600
H155        H  0.68704867  0.84027800  0.56297828     0.14000
H156        H  0.66399827  0.74121508  0.50876920     0.13800
C157        C  0.29070177  0.20040486  0.00212124     0.85600
C158        C  0.31201492  0.18468924  0.03819728    -0.54700
C159        C  0.32218011  0.14651587  0.03672593     0.08500
C160        C  0.30743154  0.12649224  0.00030859     0.19400
C161        C  0.31737856  0.18956830  0.96774659    -0.55400
C162        C  0.32595960  0.15098048  0.96691677     0.08600
C163        C  0.25528952  0.17292581  0.99986265    -0.54900
C164        C  0.26382135  0.13452291  0.99823952     0.09200
H165        H  0.31877350  0.20126630  0.06327081     0.13700
H166        H  0.31424713  0.09517827  0.99913973    -0.00600
H167        H  0.32775599  0.21044705  0.94561766     0.14000
H168        H  0.22573194  0.18303996  0.99927123     0.13800
C169        C  0.68858973  0.20706523  0.99603403     0.85600
C170        C  0.66185699  0.19244021  0.96366138    -0.54700
C171        C  0.65863766  0.15291787  0.96192974     0.08500
C172        C  0.68220386  0.13135719  0.99249973     0.19400
C173        C  0.67160239  0.18736838  0.03303660    -0.55400
C174        C  0.66799406  0.14788985  0.03151498     0.08600
C175        C  0.72676474  0.18701884  0.98752803    -0.54900
C176        C  0.72413713  0.14761295  0.98606538     0.09200
H177        H  0.64718260  0.21052118  0.94297633     0.13700
H178        H  0.67925803  0.09928174  0.99077934    -0.00600
H179        H  0.66085869  0.20371433  0.05741646     0.14000
H180        H  0.75409235  0.20301457  0.98330259     0.13800
C181        C  0.29267040  0.20124597  0.50231166     0.85600
C182        C  0.30813390  0.17943139  0.46667759    -0.54700
C183        C  0.34706396  0.17213627  0.46712028     0.08500
C184        C  0.36708377  0.18780787  0.50302927     0.19400
C185        C  0.30537445  0.17597015  0.53716117    -0.55400
C186        C  0.34392937  0.16866263  0.53711762     0.08600
C187        C  0.31860317  0.23784751  0.50445901    -0.54900
C188        C  0.35727319  0.23104291  0.50512491     0.09200
H189        H  0.28967487  0.16972932  0.44369711     0.13700
H190        H  0.39868905  0.18256514  0.50330768    -0.00600
H191        H  0.28706600  0.16523927  0.56098715     0.14000
H192        H  0.30716864  0.26686128  0.50691992     0.13800
C193        C  0.29162298  0.80790368  0.51023768     0.85600
C194        C  0.30459855  0.83077107  0.54580741    -0.54700
C195        C  0.34357571  0.83829350  0.54635743     0.08500
C196        C  0.36647258  0.82063213  0.51263777     0.19400
C197        C  0.30886769  0.83009739  0.47490466    -0.55400
C198        C  0.34745437  0.83880792  0.47645484     0.08600
C199        C  0.31502296  0.77093794  0.51327192    -0.54900
C200        C  0.35392121  0.77692466  0.51437670     0.09200
H201        H  0.28581853  0.83873664  0.56968848     0.13700
H202        H  0.39820439  0.82595887  0.51413709    -0.00600
H203        H  0.29140734  0.83811212  0.45049980     0.14000
H204        H  0.30188244  0.74194504  0.51524831     0.13800
O205        O  0.86599817  0.76489425  0.53378700    -0.81100
O206        O  0.02337046  0.75052092  0.37618112    -0.82600
O207        O  0.91917630  0.82241549  0.41878176    -0.79600
O208        O  0.91015932  0.69365498  0.42406917    -0.78000
O209        O  0.94590612  0.64670093  0.45274640    -0.79800
O210        O  0.94720276  0.86841197  0.45690263    -0.80700
O211        O  0.95725636  0.75086087  0.37782266    -0.82100
O212        O  0.86603209  0.76495976  0.46760853    -0.82300
Eu213      Eu  0.93417622  0.75758233  0.44487544     2.39200
O214        O  0.99006094  0.71972211  0.44329319    -0.89900
O215        O  0.93449022  0.79542128  0.50060401    -0.93500
C216        C  0.84889765  0.76850632  0.50103894     1.01200
C217        C  0.99023748  0.74685707  0.36022947     1.01000
C218        C  0.92617108  0.85777036  0.42860921     1.01000
C219        C  0.91922483  0.65777690  0.42984809     0.98800
H220        H  0.99017876  0.81341616  0.42173892     0.28600
O221        O  0.99027145  0.79729200  0.44491262    -1.02200
H222        H  0.91054605  0.69901971  0.49900636     0.28600
O223        O  0.93370209  0.71522627  0.49909481    -1.04800
O224        O  0.11336957  0.76542392  0.46114325    -0.82000
O225        O  0.95627875  0.74386865  0.62055438    -0.81600
O226        O  0.03140690  0.86984221  0.44997914    -0.80000
O227        O  0.03654745  0.64863768  0.45131005    -0.83300
O228        O  0.94554072  0.64158564  0.54140492    -0.81200
O229        O  0.94642604  0.86300363  0.55105103    -0.79800
O230        O  0.06479221  0.81683867  0.58102683    -0.81400
O231        O  0.07170593  0.69292745  0.57112845    -0.83300
O232        O  0.03436878  0.86519108  0.54850912    -0.80000
O233        O  0.03777498  0.64564045  0.53994810    -0.82700
O234        O  0.06206038  0.82484408  0.41339705    -0.78400
O235        O  0.91473128  0.81392091  0.58522391    -0.78500
O236        O  0.90917155  0.68695824  0.57208067    -0.78100
O237        O  0.07119763  0.69737265  0.41926677    -0.81600
O238        O  0.11155330  0.76422158  0.52738320    -0.81000
O239        O  0.02271872  0.74786484  0.61806347    -0.79400
Eu240      Eu  0.04600738  0.75977444  0.44157198     2.39800
Eu241      Eu  0.93319841  0.75302835  0.55474102     2.39600
Eu242      Eu  0.99070476  0.83560297  0.50088117     2.38400
Eu243      Eu  0.99065416  0.67755184  0.49739372     2.39900
Eu244      Eu  0.04523057  0.75560187  0.55157021     2.39800
O245        O  0.98941381  0.71521730  0.55295821    -0.93800
O246        O  0.04693469  0.79820438  0.49738840    -0.92700
C247        C  0.12935228  0.76749050  0.49427862     1.01400
C248        C  0.98982893  0.74343770  0.63600081     1.00100
C249        C  0.05305394  0.86018469  0.42068040     0.99500
C250        C  0.06308427  0.66110680  0.42674473     1.01500
C251        C  0.91771457  0.65153537  0.56439852     1.00400
C252        C  0.92292253  0.85024462  0.57870879     0.99300
C253        C  0.05707208  0.85288768  0.57521495     0.99300
C254        C  0.06428729  0.65723078  0.56305700     1.02000
H255        H  0.98957221  0.80709711  0.57815025     0.29300
O256        O  0.98943680  0.79277369  0.55449154    -1.05900
H257        H  0.06976774  0.70298927  0.49535445     0.31400
O258        O  0.04650142  0.71803005  0.49611216    -1.08500
O259        O  0.86801251  0.24934888  0.53741061    -0.81100
O260        O  0.02634500  0.27130680  0.38085531    -0.82600
O261        O  0.91344380  0.32396677  0.42713943    -0.79600
O262        O  0.92005790  0.19750843  0.42060883    -0.78000
O263        O  0.94945156  0.14976706  0.45570083    -0.79800
O264        O  0.94902973  0.37200694  0.45559213    -0.80700
O265        O  0.96019206  0.26923083  0.38158295    -0.82100
O266        O  0.86958927  0.25101757  0.47139413    -0.82300
Eu267      Eu  0.93725719  0.26042725  0.44837279     2.39200
O268        O  0.99311522  0.22275696  0.44686707    -0.89900
O269        O  0.93600775  0.29909173  0.50331167    -0.93500
C270        C  0.85156645  0.24677523  0.50451437     1.01200
C271        C  0.99345070  0.27379830  0.36409469     1.01000
C272        C  0.92251545  0.35992730  0.43276258     1.01000
C273        C  0.92736897  0.16166331  0.42849008     0.98800
H274        H  0.99362008  0.31900323  0.42564657     0.28600
O275        O  0.99282720  0.30159834  0.44796121    -1.02200
H276        H  0.91386455  0.20125584  0.50389939     0.28600
O277        O  0.93585288  0.21908271  0.50361979    -1.04800
O278        O  0.11482239  0.25444383  0.47069432    -0.82000
O279        O  0.95378389  0.26575993  0.62628625    -0.81600
O280        O  0.04129976  0.37303412  0.45988570    -0.80000
O281        O  0.03956422  0.15414456  0.45616678    -0.83300
O282        O  0.95083663  0.14734649  0.55101087    -0.81200
O283        O  0.94183669  0.36983369  0.54345777    -0.79800
O284        O  0.06820552  0.32430470  0.57958420    -0.81400
O285        O  0.06046838  0.19650463  0.58620141    -0.83300
O286        O  0.03516211  0.37185521  0.54827891    -0.80000
O287        O  0.03252259  0.14993580  0.54945611    -0.82700
O288        O  0.07727458  0.32684004  0.43003947    -0.78400
O289        O  0.90684947  0.32114203  0.57479555    -0.78500
O290        O  0.92160843  0.19321561  0.58820499    -0.78100
O291        O  0.06913923  0.20356777  0.42004582    -0.81600
O292        O  0.11278509  0.25474524  0.53688390    -0.81000
O293        O  0.01981501  0.26689711  0.62671142    -0.79400
Eu294      Eu  0.04845032  0.26367956  0.44803368     2.39800
Eu295      Eu  0.93466349  0.25823948  0.55882363     2.39600
Eu296      Eu  0.99169893  0.34020963  0.50251063     2.38400
Eu297      Eu  0.99191073  0.18185072  0.50210639     2.39900
Eu298      Eu  0.04476794  0.26087345  0.55921181     2.39800
O299        O  0.98990032  0.22025399  0.55763152    -0.93800
O300        O  0.04742584  0.30188166  0.50355121    -0.92700
C301        C  0.13072652  0.25075902  0.50396719     1.01400
C302        C  0.98612536  0.26931306  0.64380035     1.00100
C303        C  0.06941487  0.36229199  0.43747792     0.99500
C304        C  0.06282299  0.16749728  0.42881177     1.01500
C305        C  0.92983562  0.15785736  0.58014502     1.00400
C306        C  0.91371941  0.35738266  0.56604741     0.99300
C307        C  0.06036011  0.36019730  0.57268617     0.99300
C308        C  0.05393897  0.16071984  0.57733279     1.02000
H309        H  0.98858234  0.31638963  0.58030022     0.29300
O310        O  0.98960696  0.29977046  0.55819626    -1.05900
H311        H  0.06863648  0.20573250  0.50379465     0.31400
O312        O  0.04667893  0.22262885  0.50348123    -1.08500
C313        C  0.79073697  0.50586686  0.69562208     0.85600
C314        C  0.81290030  0.47063791  0.68071208    -0.54700
C315        C  0.81380080  0.46764910  0.64132798     0.08500
C316        C  0.79293169  0.50041384  0.62026791     0.19400
C317        C  0.81071705  0.54078087  0.67427169    -0.55400
C318        C  0.81235019  0.53774944  0.63518096     0.08600
C319        C  0.75075597  0.50321423  0.67741197    -0.54900
C320        C  0.75128658  0.49899683  0.63819188     0.09200
H321        H  0.82798372  0.45084453  0.69967812     0.13700
H322        H  0.79476404  0.49760932  0.58846707    -0.00600
H323        H  0.82457825  0.56529246  0.68767170     0.14000
H324        H  0.72404634  0.50346802  0.69470231     0.13800
C325        C  0.19462868  0.51171334  0.69096129     0.85600
C326        C  0.17082986  0.54664323  0.67619240    -0.54700
C327        C  0.15940722  0.54389424  0.63878224     0.08500
C328        C  0.17324544  0.50721903  0.61895490     0.19400
C329        C  0.16829901  0.47608822  0.68295302    -0.55400
C330        C  0.15746424  0.47392206  0.64529002     0.08600
C331        C  0.22827280  0.50983129  0.66139984    -0.54900
C332        C  0.21706201  0.50703613  0.62410462     0.09200
H333        H  0.16251701  0.57136579  0.69286413     0.13700
H334        H  0.16447524  0.50500093  0.58837202    -0.00600
H335        H  0.15874270  0.45483843  0.70508467     0.14000
H336        H  0.25853666  0.51030025  0.66926607     0.13800
C337        C  0.79464821  0.00885438  0.31183284     0.85600
C338        C  0.80906318  0.97524158  0.33818956    -0.54700
C339        C  0.84816343  0.97625831  0.34356494     0.08500
C340        C  0.86954829  0.01022949  0.32253257     0.19400
C341        C  0.80981735  0.04558387  0.33172941    -0.55400
C342        C  0.84888511  0.04619643  0.33783308     0.08600
C343        C  0.81936779  0.00582276  0.27470954    -0.54900
C344        C  0.85814264  0.00623238  0.28021345     0.09200
H345        H  0.79122462  0.95231079  0.35166342     0.13700
H346        H  0.90134177  0.01075210  0.32675057    -0.00600
H347        H  0.79099998  0.06849988  0.34128792     0.14000
H348        H  0.80711877  0.00251137  0.24630730     0.13800
C349        C  0.79549748  0.00549946  0.70143440     0.85600
C350        C  0.81601877  0.04254419  0.68476215    -0.54700
C351        C  0.85510360  0.04026785  0.68020614     0.08500
C352        C  0.87115824  0.00113298  0.69563759     0.19400
C353        C  0.81019202  0.97276168  0.67508956    -0.55400
C354        C  0.84988083  0.97026348  0.67199245     0.08600
C355        C  0.81510758  0.99867594  0.73993229    -0.54900
C356        C  0.85427661  0.99498841  0.73767179     0.09200
H357        H  0.80182507  0.06821429  0.67435768     0.13700
H358        H  0.90296935  0.99877112  0.69335839    -0.00600
H359        H  0.79075066  0.95327302  0.66024255     0.14000
H360        H  0.79877680  0.99624831  0.76721616     0.13800
C361        C  0.79126267  0.50522663  0.30517760     0.85600
C362        C  0.81503822  0.54165446  0.31654156    -0.54700
C363        C  0.82529488  0.54157471  0.35456138     0.08500
C364        C  0.81005804  0.50610278  0.37831025     0.19400
C365        C  0.81582667  0.47063845  0.31834788    -0.55400
C366        C  0.82585630  0.47136116  0.35643299     0.08600
C367        C  0.75646565  0.50501344  0.33431491    -0.54900
C368        C  0.76630346  0.50537915  0.37219433     0.09200
H369        H  0.82345921  0.56513869  0.29634726     0.13700
H370        H  0.81797134  0.50661682  0.40924756    -0.00600
H371        H  0.82501617  0.44797917  0.29905013     0.14000
H372        H  0.72640525  0.50733709  0.32667953     0.13800
C373        C  0.18534967  0.50954795  0.29873020     0.85600
C374        C  0.17158633  0.47212064  0.32074651    -0.54700
C375        C  0.17180214  0.47475722  0.36004950     0.08500
C376        C  0.18686629  0.51448518  0.37409828     0.19400
C377        C  0.15880852  0.54045763  0.31538448    -0.55400
C378        C  0.15959413  0.54409952  0.35488145     0.08600
C379        C  0.22527852  0.51848110  0.31429472    -0.54900
C380        C  0.22670908  0.52058592  0.35328407     0.09200
H381        H  0.15810484  0.44716993  0.30768171     0.13700
H382        H  0.18941656  0.51609647  0.40578822    -0.00600
H383        H  0.14016125  0.55726723  0.29695271     0.14000
H384        H  0.25104520  0.52189853  0.29564131     0.13800
C385        C  0.18873391  0.01515502  0.30688243     0.85600
C386        C  0.17632044  0.04960336  0.33197747    -0.54700
C387        C  0.13719062  0.05475126  0.33386741     0.08500
C388        C  0.11385311  0.02477233  0.31098888     0.19400
C389        C  0.16572413  0.98019017  0.32453917    -0.55400
C390        C  0.12662311  0.98497633  0.32733190     0.08600
C391        C  0.17070659  0.02410255  0.26793181    -0.54900
C392        C  0.13191977  0.02903491  0.26954855     0.09200
H393        H  0.19573005  0.06930843  0.34634108     0.13700
H394        H  0.08198981  0.02834044  0.31257631    -0.00600
H395        H  0.17954059  0.95420501  0.33534522     0.14000
H396        H  0.18733409  0.02551551  0.24078217     0.13800
C397        C  0.18323927  0.00821837  0.69802088     0.85600
C398        C  0.16617641  0.97343537  0.67552638    -0.54700
C399        C  0.12662953  0.97401694  0.67026603     0.08500
C400        C  0.10825776  0.01017692  0.68835337     0.19400
C401        C  0.17020475  0.04369665  0.67413961    -0.55400
C402        C  0.13109357  0.04488204  0.66945542     0.08600
C403        C  0.15888005  0.00827005  0.73562655    -0.54900
C404        C  0.12011707  0.00983059  0.73078558     0.09200
H405        H  0.18371785  0.95129418  0.66275994     0.13700
H406        H  0.07659592  0.01227995  0.68644629    -0.00600
H407        H  0.19015429  0.06565962  0.66161136     0.14000
H408        H  0.17146125  0.00841197  0.76410781     0.13800
O409        O  0.74009182  0.63669093  0.96856213    -0.81100
O410        O  0.74572141  0.47487084  0.12350761    -0.82600
O411        O  0.68112179  0.58836072  0.07849832    -0.79600
O412        O  0.81011303  0.58498707  0.07757389    -0.78000
O413        O  0.85651111  0.55100205  0.04579901    -0.79800
O414        O  0.63453917  0.56157652  0.04085303    -0.80700
O415        O  0.75055178  0.54132190  0.12348517    -0.82100
O416        O  0.74231724  0.63439117  0.03439691    -0.82300
Eu417      Eu  0.74501264  0.56617915  0.05605526     2.39200
O418        O  0.78106143  0.50963374  0.05465470    -0.89900
O419        O  0.70795274  0.56876478  0.99984572    -0.93500
C420        C  0.73830873  0.65286858  0.00195138     1.01200
C421        C  0.75095844  0.50749109  0.14051916     1.01000
C422        C  0.64561892  0.58390934  0.06808889     1.01000
C423        C  0.84576667  0.57589937  0.07080002     0.98800
H424        H  0.68527921  0.51299037  0.07786438     0.28600
O425        O  0.70186697  0.51259644  0.05495395    -1.02200
H426        H  0.80261132  0.59102712  0.00169475     0.28600
O427        O  0.78610896  0.56807026  0.00071063    -1.04800
O428        O  0.72782772  0.38918891  0.03365089    -0.82000
O429        O  0.76109150  0.54747300  0.87835662    -0.81600
O430        O  0.62806686  0.47367668  0.04468451    -0.80000
O431        O  0.84953078  0.46220953  0.04394663    -0.83300
O432        O  0.85684102  0.56164542  0.95738074    -0.81200
O433        O  0.63784322  0.56122063  0.95084403    -0.79800
O434        O  0.68135920  0.44113298  0.91669400    -0.81400
O435        O  0.80686496  0.42804174  0.92955313    -0.83300
O436        O  0.63383671  0.47247103  0.94958730    -0.80000
O437        O  0.85498174  0.46444766  0.95658148    -0.82700
O438        O  0.67149540  0.43907834  0.07996703    -0.78400
O439        O  0.68804328  0.59083535  0.91590758    -0.78500
O440        O  0.81211215  0.59859089  0.92742022    -0.78100
O441        O  0.79987578  0.42742784  0.07418152    -0.81600
O442        O  0.72970545  0.39076323  0.96743202    -0.81000
O443        O  0.75793224  0.48104068  0.87987003    -0.79400
Eu444      Eu  0.73807408  0.45571883  0.05580476     2.39800
Eu445      Eu  0.74874330  0.57016419  0.94465492     2.39600
Eu446      Eu  0.66521255  0.51500193  0.99767090     2.38400
Eu447      Eu  0.82285683  0.51098381  0.99957079     2.39900
Eu448      Eu  0.74384427  0.45782903  0.94539046     2.39800
O449        O  0.78536455  0.51314561  0.94434156    -0.93800
O450        O  0.70124521  0.45788408  0.99953167    -0.92700
C451        C  0.72462257  0.37310106  0.00053198     1.01400
C452        C  0.76360048  0.51408322  0.86226806     1.00100
C453        C  0.63675153  0.44922649  0.07173800     0.99500
C454        C  0.83626651  0.43439893  0.06657733     1.01500
C455        C  0.84726021  0.59069231  0.93525232     1.00400
C456        C  0.65170583  0.58413908  0.92354852     0.99300
C457        C  0.64548643  0.44928543  0.92281981     0.99300
C458        C  0.84287708  0.43580826  0.93623855     1.02000
H459        H  0.69347543  0.51571757  0.91959914     0.29300
O460        O  0.70761451  0.51493590  0.94325968    -1.05900
H461        H  0.79445358  0.43226335  0.00135096     0.31400
O462        O  0.78027507  0.45608127  0.00112213    -1.08500
O463        O  0.26130095  0.63012028  0.95780185    -0.81100
O464        O  0.22326811  0.47273423  0.11659204    -0.82600
O465        O  0.17981094  0.59285661  0.06411198    -0.79600
O466        O  0.30553775  0.57805935  0.07776554    -0.78000
O467        O  0.35223750  0.54686918  0.04335678    -0.79800
O468        O  0.13186251  0.55945912  0.03414589    -0.80700
O469        O  0.22681176  0.53901872  0.11539958    -0.82100
O470        O  0.25610501  0.62966000  0.02402997    -0.82300
Eu471      Eu  0.24258586  0.56279793  0.04887527     2.39200
O472        O  0.27793939  0.50518436  0.05048009    -0.89900
O473        O  0.20679772  0.56512674  0.99226707    -0.93500
C474        C  0.26292139  0.64674811  0.99075570     1.01200
C475        C  0.22015348  0.50580270  0.13290538     1.01000
C476        C  0.14376100  0.58673739  0.05630023     1.01000
C477        C  0.34133642  0.56979069  0.07042668     0.98800
H478        H  0.18051356  0.50901335  0.06966587     0.28600
O479        O  0.19942603  0.50858908  0.04862366    -1.02200
H480        H  0.30487832  0.58295093  0.99468245     0.28600
O481        O  0.28614296  0.56165226  0.99479943    -1.04800
O482        O  0.24248047  0.38342585  0.03046493    -0.82000
O483        O  0.24416682  0.54214133  0.87163729    -0.81600
O484        O  0.12615063  0.46257274  0.03368516    -0.80000
O485        O  0.34743659  0.45863048  0.04397498    -0.83300
O486        O  0.35795224  0.54162448  0.94469847    -0.81200
O487        O  0.13913585  0.55980053  0.94649077    -0.79800
O488        O  0.17626285  0.42907692  0.92209871    -0.81400
O489        O  0.30393944  0.43184425  0.91440484    -0.83300
O490        O  0.13099516  0.46896306  0.94788039    -0.80000
O491        O  0.35128375  0.45854248  0.95159804    -0.82700
O492        O  0.16905825  0.42378397  0.06471461    -0.78400
O493        O  0.19043063  0.59359632  0.91743507    -0.78500
O494        O  0.31420915  0.57468333  0.90935590    -0.78100
O495        O  0.29665349  0.43193336  0.08036452    -0.81600
O496        O  0.24652581  0.38315531  0.96440967    -0.81000
O497        O  0.23838412  0.47597605  0.87135866    -0.79400
Eu498      Eu  0.23520301  0.45089962  0.05057027     2.39800
Eu499      Eu  0.24954695  0.56302303  0.93835307     2.39600
Eu500      Eu  0.16353902  0.51126804  0.99260657     2.38400
Eu501      Eu  0.32096983  0.50412215  0.99627651     2.39900
Eu502      Eu  0.24107154  0.45159661  0.93977564     2.39800
O503        O  0.28409123  0.50544240  0.94016727    -0.93800
O504        O  0.19885368  0.45328379  0.99413744    -0.92700
C505        C  0.24777556  0.36600325  0.99819303     1.01400
C506        C  0.23897638  0.50992329  0.85418680     1.00100
C507        C  0.13422492  0.43336348  0.05612908     0.99500
C508        C  0.33321631  0.43718373  0.07223081     1.01500
C509        C  0.34888781  0.56371606  0.91560917     1.00400
C510        C  0.15400864  0.58666500  0.92367091     0.99300
C511        C  0.14102024  0.44008464  0.92731797     0.99300
C512        C  0.33944406  0.43735014  0.92376077     1.02000
H513        H  0.19012497  0.51066758  0.91576704     0.29300
O514        O  0.20584215  0.50949614  0.93844168    -1.05900
H515        H  0.29385616  0.42788919  0.99723297     0.31400
O516        O  0.27788215  0.45053047  0.99630339    -1.08500
C517        C  0.00307505  0.71058229  0.79929475     0.85600
C518        C  0.03761499  0.68546404  0.80897012    -0.54700
C519        C  0.04126054  0.67809436  0.84754762     0.08500
C520        C  0.01044132  0.69735495  0.87331895     0.19400
C521        C  0.96755866  0.69000852  0.81910111    -0.55400
C522        C  0.97149748  0.68230593  0.85783024     0.08600
C523        C  0.00827272  0.74734822  0.82310560    -0.54900
C524        C  0.01361629  0.74060597  0.86122359     0.09200
H525        H  0.05798852  0.67540055  0.78715866     0.13700
H526        H  0.01348737  0.69224875  0.90489142    -0.00600
H527        H  0.94167704  0.68186861  0.80377246     0.14000
H528        H  0.00560207  0.77686694  0.81210720     0.13800
C529        C  0.98832558  0.30650650  0.81003479     0.85600
C530        C  0.95191987  0.32475694  0.82904247    -0.54700
C531        C  0.95528275  0.33297745  0.86731898     0.08500
C532        C  0.99447789  0.32143534  0.88375448     0.19400
C533        C  0.02117715  0.33575716  0.81889472    -0.55400
C534        C  0.02494043  0.34292544  0.85740337     0.08600
C535        C  0.99584768  0.27073397  0.83589781    -0.54900
C536        C  0.99969545  0.27854446  0.87414360     0.09200
H537        H  0.92662916  0.33398095  0.81388577     0.13700
H538        H  0.99715662  0.32735357  0.91502937    -0.00600
H539        H  0.03952337  0.34984581  0.79651354     0.14000
H540        H  0.99822096  0.24159960  0.82481901     0.13800
C541        C  0.49712536  0.70193272  0.79549196     0.85600
C542        C  0.46356734  0.67853237  0.81617574    -0.54700
C543        C  0.47046098  0.63971800  0.82133917     0.08500
C544        C  0.51027143  0.62777049  0.80482020     0.19400
C545        C  0.53249312  0.69316550  0.81999397    -0.55400
C546        C  0.53915883  0.65454916  0.82541894     0.08600
C547        C  0.50336557  0.68051388  0.75779076    -0.54900
C548        C  0.51154196  0.64230814  0.76209049     0.09200
H549        H  0.43661880  0.69057135  0.82638824     0.13700
H550        H  0.51592072  0.59633330  0.80854567    -0.00600
H551        H  0.55056531  0.71576538  0.83214988     0.14000
H552        H  0.50175182  0.69475957  0.72950073     0.13800
C553        C  0.48848063  0.70080183  0.19717916     0.85600
C554        C  0.52305148  0.69199734  0.16995045    -0.54700
C555        C  0.52620138  0.65365790  0.16162269     0.08500
C556        C  0.49403748  0.62723501  0.18009346     0.19400
C557        C  0.45319920  0.68375100  0.17573087    -0.55400
C558        C  0.45597174  0.64528760  0.16699381     0.08600
C559        C  0.49258804  0.67327615  0.23233645    -0.54900
C560        C  0.49585383  0.63502287  0.22361393     0.09200
H561        H  0.54346517  0.71407864  0.15847289     0.13700
H562        H  0.49697536  0.59613848  0.17291985    -0.00600
H563        H  0.42891123  0.70021187  0.16590778     0.14000
H564        H  0.49386025  0.68340925  0.26181332     0.13800
C565        C  0.98472660  0.31522116  0.19957729     0.85600
C566        C  0.01882059  0.33711092  0.17785764    -0.54700
C567        C  0.01602769  0.33789076  0.13837350     0.08500
C568        C  0.97943086  0.31643331  0.12410766     0.19400
C569        C  0.94886025  0.33611647  0.18478581    -0.55400
C570        C  0.94571296  0.33656505  0.14530953     0.08600
C571        C  0.98370046  0.27537001  0.18157274    -0.54900
C572        C  0.97994447  0.27535774  0.14277116     0.09200
H573        H  0.04231653  0.35237461  0.19153227     0.13700
H574        H  0.97740201  0.31634760  0.09211883    -0.00600
H575        H  0.92918630  0.35117787  0.20392879     0.14000
H576        H  0.98503871  0.24853513  0.19869908     0.13800
C577        C  0.99553814  0.69936368  0.19927600     0.85600
C578        C  0.96299031  0.67118824  0.18667356    -0.54700
C579        C  0.96054742  0.66809708  0.14778407     0.08500
C580        C  0.99108651  0.69237335  0.12445450     0.19400
C581        C  0.03204854  0.68238759  0.18009330    -0.55400
C582        C  0.03040443  0.67920543  0.14050762     0.08600
C583        C  0.98880167  0.73742695  0.17717443    -0.54900
C584        C  0.98502038  0.73387394  0.13851900     0.09200
H585        H  0.94439947  0.65320935  0.20574833     0.13700
H586        H  0.98826749  0.69002631  0.09270802    -0.00600
H587        H  0.05566519  0.67139626  0.19691532     0.14000
H588        H  0.98654651  0.76511977  0.19138040     0.13800
C589        C  0.49476632  0.31792956  0.79742767     0.85600
C590        C  0.52897423  0.33374441  0.82170227    -0.54700
C591        C  0.52660297  0.37235524  0.83091104     0.08500
C592        C  0.49068593  0.39168985  0.81439560     0.19400
C593        C  0.45878859  0.32802236  0.82192948    -0.55400
C594        C  0.45658970  0.36633196  0.83064422     0.08600
C595        C  0.49443316  0.34570211  0.76216411    -0.54900
C596        C  0.49196527  0.38400896  0.77085687     0.09200
H597        H  0.55243457  0.31648889  0.83223729     0.13700
H598        H  0.48851966  0.42302255  0.82077670    -0.00600
H599        H  0.43669582  0.30665875  0.83132527     0.14000
H600        H  0.49401095  0.33571742  0.73259640     0.13800
C601        C  0.48663441  0.31157680  0.19657119     0.85600
C602        C  0.45267580  0.32257751  0.17037558    -0.54700
C603        C  0.44833613  0.36178674  0.16488770     0.08500
C604        C  0.47879904  0.38655174  0.18525956     0.19400
C605        C  0.52220366  0.33243459  0.17716719    -0.55400
C606        C  0.51765337  0.37092659  0.16849539     0.08600
C607        C  0.48024877  0.33387076  0.23356689    -0.54900
C608        C  0.47501501  0.37263718  0.22858238     0.09200
H609        H  0.43355294  0.30120084  0.15769175     0.13700
H610        H  0.47494098  0.41818663  0.18048974    -0.00600
H611        H  0.54893332  0.31860937  0.16963566     0.14000
H612        H  0.47892303  0.31959328  0.26196893     0.13800
O613        O  0.55816477  0.41409938  0.44409218    -0.81100
O614        O  0.45042151  0.49655836  0.61902442    -0.82600
O615        O  0.57696688  0.45206955  0.56817614    -0.79600
O616        O  0.46971576  0.38507664  0.53827689    -0.78000
O617        O  0.42293809  0.39612185  0.49369071    -0.79800
O618        O  0.59656930  0.51529264  0.55658685    -0.80700
O619        O  0.49109530  0.44584380  0.60859875    -0.82100
O620        O  0.54675438  0.39651096  0.50764876    -0.82300
Eu621      Eu  0.51072254  0.44533220  0.54025486     2.39200
O622        O  0.44652234  0.46762680  0.53764258    -0.89900
O623        O  0.55159121  0.48455450  0.49957280    -0.93500
C624        C  0.55877079  0.38963254  0.47310352     1.01200
C625        C  0.46993590  0.46694424  0.63057130     1.01000
C626        C  0.60201138  0.48071446  0.56953195     1.01000
C627        C  0.44110722  0.37405301  0.51735523     0.98800
H628        H  0.51958290  0.50982603  0.58444729     0.28600
O629        O  0.50981203  0.50990470  0.55858288    -1.02200
H630        H  0.48920406  0.41592704  0.46666320     0.28600
O631        O  0.48999431  0.44208296  0.47594059    -1.04800
O632        O  0.42187007  0.60097770  0.54580710    -0.82000
O633        O  0.53054309  0.51766074  0.37372679    -0.81600
O634        O  0.54426489  0.57694627  0.58551665    -0.80000
O635        O  0.36595506  0.47069662  0.51029780    -0.83300
O636        O  0.43311784  0.43839537  0.40509541    -0.81200
O637        O  0.61259087  0.54371789  0.48153935    -0.79800
O638        O  0.50432197  0.62930637  0.45612216    -0.81400
O639        O  0.40177221  0.56029302  0.42113043    -0.83300
O640        O  0.55252805  0.61780553  0.49898654    -0.80000
O641        O  0.38051903  0.49790132  0.43492651    -0.82700
O642        O  0.48053647  0.56952593  0.60452322    -0.78400
O643        O  0.60043735  0.49911179  0.43503762    -0.78500
O644        O  0.49718668  0.44520804  0.38749601    -0.78100
O645        O  0.37864401  0.51415616  0.55785167    -0.81600
O646        O  0.42731140  0.61493095  0.48112382    -0.81000
O647        O  0.48817530  0.56707296  0.38323613    -0.79400
Eu648      Eu  0.44671316  0.53345692  0.55642350     2.39800
Eu649      Eu  0.53193759  0.48048041  0.43564522     2.39600
Eu650      Eu  0.55067133  0.54958346  0.51891219     2.38400
Eu651      Eu  0.42694578  0.46425024  0.47255063     2.39900
Eu652      Eu  0.46667979  0.56738984  0.45097817     2.39800
O653        O  0.46846023  0.50276790  0.43222185    -0.93800
O654        O  0.48743922  0.57186847  0.51506186    -0.92700
C655        C  0.41799126  0.62393012  0.51584901     1.01400
C656        C  0.51095106  0.54697022  0.36192344     1.00100
C657        C  0.51588651  0.57942688  0.61071237     0.99500
C658        C  0.35570564  0.49222449  0.53871133     1.01500
C659        C  0.46191417  0.43577615  0.38038803     1.00400
C660        C  0.62331260  0.52160414  0.45365397     0.99300
C661        C  0.53305804  0.64023929  0.47687562     0.99300
C662        C  0.37654041  0.53192263  0.41992008     1.02000
H663        H  0.54822416  0.56224574  0.43717142     0.29300
O664        O  0.53125381  0.54628662  0.45392931    -1.05900
H665        H  0.40080519  0.53950348  0.49199434     0.31400
O666        O  0.42645347  0.52909621  0.49269526    -1.08500
O667        O  0.07386494  0.92865642  0.05719910    -0.81100
O668        O  0.00596508  0.04331465  0.88353530    -0.82600
O669        O  0.03665286  0.91163903  0.93770740    -0.79600
O670        O  0.11142784  0.01728665  0.96708356    -0.78000
O671        O  0.09934759  0.06774549  0.00729787    -0.79800
O672        O  0.97259513  0.89562612  0.94671611    -0.80700
O673        O  0.05284244  0.99858241  0.89513512    -0.82100
O674        O  0.09465293  0.93925220  0.99433528    -0.82300
Eu675      Eu  0.04871832  0.97916149  0.96291469     2.39200
O676        O  0.02992752  0.04476000  0.96454327    -0.89900
O677        O  0.00630566  0.94088690  0.00292323    -0.93500
C678        C  0.09861963  0.92509928  0.02852991     1.01200
C679        C  0.03473723  0.02211104  0.87299409     1.01000
C680        C  0.00707837  0.88761739  0.93577622     1.01000
C681        C  0.12215919  0.04747912  0.98631299     0.98800
H682        H  0.98496198  0.97394861  0.91657223     0.28600
O683        O  0.98503047  0.98395957  0.94240465    -1.02200
H684        H  0.07740420  0.99995325  0.03623536     0.28600
O685        O  0.05148008  0.00113580  0.02667288    -1.04800
O686        O  0.89871402  0.07590320  0.95035208    -0.82000
O687        O  0.96824057  0.96640306  0.12630427    -0.81600
O688        O  0.91540347  0.95256975  0.91555364    -0.80000
O689        O  0.02854020  0.12719224  0.99079080    -0.83300
O690        O  0.06032199  0.05536184  0.09549550    -0.81200
O691        O  0.94351898  0.88567941  0.02398196    -0.79800
O692        O  0.86522983  0.99866520  0.04553474    -0.81400
O693        O  0.93995979  0.09850044  0.07970972    -0.83300
O694        O  0.87472762  0.94911817  0.00334646    -0.80000
O695        O  0.00392120  0.11392211  0.06829474    -0.82700
O696        O  0.92742243  0.01585453  0.89663916    -0.78400
O697        O  0.98709586  0.89576427  0.07173154    -0.78500
O698        O  0.05098921  0.99141308  0.11221711    -0.78100
O699        O  0.98658763  0.11699434  0.94140204    -0.81600
O700        O  0.88177282  0.07184160  0.01467292    -0.81000
O701        O  0.92234201  0.01163875  0.11431581    -0.79400
Eu702      Eu  0.96541019  0.04898267  0.94367276     2.39800
Eu703      Eu  0.00993976  0.96204047  0.06637328     2.39600
Eu704      Eu  0.94225777  0.94597781  0.98229952     2.38400
Eu705      Eu  0.03243777  0.06565848  0.02913126     2.39900
Eu706      Eu  0.92811205  0.03382410  0.04815795     2.39800
O707        O  0.99128968  0.02723728  0.06975335    -0.93800
O708        O  0.92430049  0.01102753  0.98473596    -0.92700
C709        C  0.87466135  0.08036115  0.97931767     1.01400
C710        C  0.93972594  0.98796851  0.13676116     1.00100
C711        C  0.91499438  0.98117486  0.89038996     0.99500
C712        C  0.00897701  0.13866486  0.96140811     1.01500
C713        C  0.06265195  0.02582081  0.11949464     1.00400
C714        C  0.96327568  0.87443036  0.05340508     0.99300
C715        C  0.85334062  0.96980806  0.02545380     0.99300
C716        C  0.97049412  0.12095530  0.08288612     1.02000
H717        H  0.92817340  0.95208047  0.06280959     0.29300
O718        O  0.94552038  0.96774830  0.04620782    -1.05900
H719        H  0.95992532  0.09785230  0.00782108     0.31400
O720        O  0.96885699  0.07149492  0.00705873    -1.08500
C721        C  0.43526335  0.38004377  0.28990914    -0.10100
C722        C  0.46358276  0.39576545  0.26310628     0.06100
C723        C  0.48510152  0.42862832  0.27387096    -0.03800
C724        C  0.48097128  0.44259732  0.31124103    -0.08300
C725        C  0.45621975  0.42424587  0.33950903     0.05200
C726        C  0.43143895  0.39392665  0.32785182    -0.03300
Br727      Br  0.39478466  0.36825978  0.36299399    -0.03000
H728        H  0.41771882  0.35511032  0.28207900     0.09100
H729        H  0.49949112  0.46682507  0.31900426     0.07200
Br730      Br  0.52484150  0.45277735  0.24170737    -0.03400
C731        C  0.44774296  0.40964664  0.72211751    -0.10100
C732        C  0.48318194  0.41340171  0.74070975     0.06100
C733        C  0.51092448  0.44116946  0.72668194    -0.03800
C734        C  0.50406907  0.46224963  0.69239795    -0.08300
C735        C  0.46985413  0.45588854  0.67194855     0.05200
C736        C  0.44102853  0.43042196  0.68786292    -0.03300
Br737      Br  0.39441401  0.41892346  0.66112907    -0.03000
H738        H  0.42623788  0.38837588  0.73288297     0.09100
H739        H  0.52676355  0.48135773  0.68005212     0.07200
Br740      Br  0.56008408  0.44773488  0.75065121    -0.03400
C741        C  0.93679983  0.82484818  0.09976435    -0.10100
C742        C  0.96086311  0.83396629  0.06752564     0.06100
C743        C  0.99087924  0.80867960  0.05774561    -0.03800
C744        C  0.99619913  0.77471196  0.07952786    -0.08300
C745        C  0.97388271  0.76680357  0.11318374     0.05200
C746        C  0.94353853  0.79213486  0.12318237    -0.03300
Br747      Br  0.91185803  0.78605899  0.16952396    -0.03000
H748        H  0.91490263  0.84508658  0.10871410     0.09100
H749        H  0.02017532  0.75626281  0.07211031     0.07200
Br750      Br  0.02972491  0.82263079  0.01939262    -0.03400
C751        C  0.93966940  0.18516068  0.09468351    -0.10100
C752        C  0.96913129  0.15875478  0.10250295     0.06100
C753        C  0.00220602  0.17222634  0.12205929    -0.03800
C754        C  0.00612183  0.21103681  0.13148941    -0.08300
C755        C  0.97719533  0.23754045  0.12341632     0.05200
C756        C  0.94341423  0.22434566  0.10523644    -0.03300
Br757      Br  0.90133846  0.25824235  0.09556623    -0.03000
H758        H  0.91438771  0.17569429  0.07926286     0.09100
H759        H  0.03159784  0.22044517  0.14672585     0.07200
Br760      Br  0.04352511  0.13933062  0.13772696    -0.03400
C761        C  0.53659167  0.61117446  0.27689786    -0.10100
C762        C  0.50414024  0.60534996  0.25385295     0.06100
C763        C  0.47859131  0.57371492  0.26273705    -0.03800
C764        C  0.48300047  0.55199399  0.29705523    -0.08300
C765        C  0.51417457  0.55964836  0.32118786     0.05200
C766        C  0.54256627  0.58743167  0.30938108    -0.03300
Br767      Br  0.58878573  0.59484223  0.33802179    -0.03000
H768        H  0.55667692  0.63512341  0.27044233     0.09100
H769        H  0.46094823  0.53049100  0.30595548     0.07200
Br770      Br  0.43535628  0.56119531  0.23134845    -0.03400
C771        C  0.54691344  0.63527838  0.69890508    -0.10100
C772        C  0.52051084  0.61933492  0.72724559     0.06100
C773        C  0.49808188  0.58644804  0.71819850    -0.03800
C774        C  0.49964660  0.57257675  0.68061652    -0.08300
C775        C  0.52283749  0.59107214  0.65107163     0.05200
C776        C  0.54832023  0.62140449  0.66104154    -0.03300
Br777      Br  0.58242840  0.64745262  0.62365999    -0.03000
H778        H  0.56477244  0.66036732  0.70561035     0.09100
H779        H  0.48070590  0.54828732  0.67393283     0.07200
Br780      Br  0.46087746  0.56227953  0.75383010    -0.03400
C781        C  0.97925429  0.23907704  0.93218056    -0.10100
C782        C  0.00753282  0.24783526  0.90331749     0.06100
C783        C  0.04019793  0.22403980  0.90002972    -0.03800
C784        C  0.04228705  0.19027006  0.92284544    -0.08300
C785        C  0.01202915  0.17942020  0.94863206     0.05200
C786        C  0.98092009  0.20467524  0.95436935    -0.03300
Br787      Br  0.93831644  0.19161736  0.98930186    -0.03000
H788        H  0.95425669  0.25733005  0.93528993     0.09100
H789        H  0.06619568  0.17088123  0.91826280     0.07200
Br790      Br  0.08218441  0.23469024  0.86402752    -0.03400
C791        C  0.04397889  0.83922101  0.89696418    -0.10100
C792        C  0.01185895  0.84754373  0.92087272     0.06100
C793        C  0.98389967  0.81700471  0.92940363    -0.03800
C794        C  0.98798838  0.78060405  0.91316291    -0.08300
C795        C  0.01822475  0.77370515  0.88715687     0.05200
C796        C  0.04707603  0.80286125  0.87982752    -0.03300
Br797      Br  0.09026583  0.79474361  0.84509571    -0.03000
H798        H  0.06585575  0.86153080  0.89010525     0.09100
H799        H  0.96550455  0.75845633  0.91837006     0.07200
Br800      Br  0.93752314  0.82138663  0.96097030    -0.03400
C801        C  0.04345785  0.39495020  0.90204654    -0.10100
C802        C  0.05471851  0.36952937  0.87294472     0.06100
C803        C  0.09423034  0.36839120  0.86165942    -0.03800
C804        C  0.12109947  0.39282505  0.87864690    -0.08300
C805        C  0.11016670  0.41760162  0.90839981     0.05200
C806        C  0.07061010  0.41834569  0.92033749    -0.03300
Br807      Br  0.05124343  0.44728909  0.96339600    -0.03000
H808        H  0.01333664  0.39590163  0.91148030     0.09100
H809        H  0.15120901  0.39123767  0.86929425     0.07200
Br810      Br  0.11547388  0.33145837  0.82723469    -0.03400
C811        C  0.10359730  0.36816690  0.07416259    -0.10100
C812        C  0.10142677  0.40904550  0.07357569     0.06100
C813        C  0.06841010  0.42576501  0.09093309    -0.03800
C814        C  0.04056697  0.40213760  0.11119939    -0.08300
C815        C  0.04360825  0.36152443  0.11290371     0.05200
C816        C  0.07450982  0.34452490  0.09267422    -0.03300
Br817      Br  0.07788881  0.28913613  0.09000415    -0.03000
H818        H  0.12793435  0.35453110  0.05999252     0.09100
H819        H  0.01651751  0.41558890  0.12605539     0.07200
Br820      Br  0.06052386  0.48079581  0.08947347    -0.03400
C821        C  0.04895506  0.63641635  0.08534053    -0.10100
C822        C  0.06060691  0.65917434  0.11642548     0.06100
C823        C  0.10063654  0.66134976  0.12393117    -0.03800
C824        C  0.12666714  0.63775620  0.10405067    -0.08300
C825        C  0.11451173  0.61261392  0.07492201     0.05200
C826        C  0.07509753  0.61373406  0.06448364    -0.03300
Br827      Br  0.05437386  0.58727475  0.02098491    -0.03000
H828        H  0.01918898  0.63597702  0.07675200     0.09100
H829        H  0.15692241  0.63954967  0.11143242     0.07200
Br830      Br  0.12295539  0.69892247  0.15731668    -0.03400
C831        C  0.09131184  0.67015367  0.89607410    -0.10100
C832        C  0.07289538  0.65544783  0.86372289     0.06100
C833        C  0.08266413  0.61838919  0.85018218    -0.03800
C834        C  0.10987371  0.59664775  0.86985086    -0.08300
C835        C  0.12726180  0.61111543  0.90280231     0.05200
C836        C  0.11799897  0.64814284  0.91591007    -0.03300
Br837      Br  0.13852241  0.66873692  0.96234580    -0.03000
H838        H  0.08407289  0.69852028  0.90669623     0.09100
H839        H  0.11681611  0.56790919  0.85999484     0.07200
Br840      Br  0.05751937  0.59386768  0.80797170    -0.03400
C841        C  0.40630886  0.41541550  0.83997339    -0.10100
C842        C  0.42472971  0.38229443  0.85410255     0.06100
C843        C  0.41460894  0.36713944  0.89144172    -0.03800
C844        C  0.38690272  0.38572602  0.91410562    -0.08300
C845        C  0.36871634  0.41877102  0.89983392     0.05200
C846        C  0.37811411  0.43344996  0.86241608    -0.03300
Br847      Br  0.35373621  0.47857637  0.84137788    -0.03000
H848        H  0.41400101  0.42736094  0.81144840     0.09100
H849        H  0.37960823  0.37447364  0.94298393     0.07200
Br850      Br  0.43989383  0.32354323  0.91449443    -0.03400
C851        C  0.41924212  0.57349847  0.89749840    -0.10100
C852        C  0.38028827  0.57791039  0.88770701     0.06100
C853        C  0.37259619  0.59679750  0.85179026    -0.03800
C854        C  0.40290919  0.61442453  0.82967773    -0.08300
C855        C  0.44133722  0.61321407  0.84156877     0.05200
C856        C  0.44956758  0.59062009  0.87484065    -0.03300
Br857      Br  0.50070067  0.58418908  0.89342917    -0.03000
H858        H  0.42630086  0.55797479  0.92389679     0.09100
H859        H  0.39626587  0.63030738  0.80332592     0.07200
Br860      Br  0.32206152  0.60021047  0.82999307    -0.03400
C861        C  0.35981542  0.60671755  0.12913921    -0.10100
C862        C  0.37166214  0.58795426  0.09511016     0.06100
C863        C  0.41200914  0.58734641  0.08599277    -0.03800
C864        C  0.43867324  0.60473527  0.11061429    -0.08300
C865        C  0.42654527  0.62432341  0.14375158     0.05200
C866        C  0.38657965  0.62471691  0.15315280    -0.03300
Br867      Br  0.36688048  0.64713575  0.19981518    -0.03000
H868        H  0.32938882  0.60736891  0.13746258     0.09100
H869        H  0.46918369  0.60376005  0.10313840     0.07200
Br870      Br  0.43362476  0.56547559  0.03971632    -0.03400
C871        C  0.39345726  0.40706846  0.15780882    -0.10100
C872        C  0.41765001  0.37936332  0.14114511     0.06100
C873        C  0.41358177  0.37084455  0.10171046    -0.03800
C874        C  0.38575795  0.38981139  0.07987317    -0.08300
C875        C  0.36119840  0.41694299  0.09672256     0.05200
C876        C  0.36519561  0.42559253  0.13604443    -0.03300
Br877      Br  0.33443796  0.46431708  0.16040637    -0.03000
H878        H  0.39668776  0.41445056  0.18786354     0.09100
H879        H  0.38333242  0.38343262  0.04947586     0.07200
Br880      Br  0.44683518  0.33568700  0.07536390    -0.03400
C881        C  0.59519845  0.39200335  0.08864718    -0.10100
C882        C  0.60444084  0.43094479  0.09462778     0.06100
C883        C  0.58178614  0.45176510  0.12107418    -0.03800
C884        C  0.55257269  0.43239147  0.14363934    -0.08300
C885        C  0.54520543  0.39226779  0.14029846     0.05200
C886        C  0.56516219  0.37294929  0.10988451    -0.03300
Br887      Br  0.55089651  0.32243652  0.09141727    -0.03000
H888        H  0.61082978  0.37655215  0.06640786     0.09100
H889        H  0.53588420  0.44894511  0.16381355     0.07200
Br890      Br  0.59025043  0.50641576  0.12777113    -0.03400
C891        C  0.55106606  0.63145657  0.09825100    -0.10100
C892        C  0.55783650  0.63867286  0.13713889     0.06100
C893        C  0.59422774  0.63053677  0.15224130    -0.03800
C894        C  0.62247612  0.61348094  0.12902233    -0.08300
C895        C  0.61542617  0.60462121  0.09031669     0.05200
C896        C  0.57937554  0.61470685  0.07468765    -0.03300
Br897      Br  0.56716066  0.60868988  0.02125515    -0.03000
H898        H  0.52377929  0.63939318  0.08596600     0.09100
H899        H  0.64988618  0.60643192  0.14168164     0.07200
Br900      Br  0.60716175  0.64221047  0.20418325    -0.03400
C901        C  0.60285614  0.63453514  0.91176625    -0.10100
C902        C  0.62396857  0.60313358  0.89826204     0.06100
C903        C  0.61744646  0.58930871  0.86099971    -0.03800
C904        C  0.59132017  0.60795184  0.83712810    -0.08300
C905        C  0.56996299  0.63937769  0.85035612     0.05200
C906        C  0.57543719  0.65232945  0.88849612    -0.03300
Br907      Br  0.54290812  0.68986336  0.91266192    -0.03000
H908        H  0.60686613  0.64443157  0.94093682     0.09100
H909        H  0.58667650  0.59692026  0.80849168     0.07200
Br910      Br  0.64061379  0.54276062  0.84287253    -0.03400
C911        C  0.57606081  0.43581655  0.90646153    -0.10100
C912        C  0.61560400  0.43053755  0.89775542     0.06100
C913        C  0.62507017  0.40673231  0.86587251    -0.03800
C914        C  0.59567802  0.38834916  0.84519778    -0.08300
C915        C  0.55631164  0.39321948  0.85438199     0.05200
C916        C  0.54675905  0.41778144  0.88539002    -0.03300
Br917      Br  0.49481576  0.42659694  0.90319494    -0.03000
H918        H  0.56755536  0.45372784  0.93043452     0.09100
H919        H  0.60376877  0.37031607  0.82116485     0.07200
Br920      Br  0.67703708  0.39736601  0.84761121    -0.03400
C921        C  0.92866358  0.38140674  0.09155262    -0.10100
C922        C  0.91632473  0.35933265  0.12440134     0.06100
C923        C  0.87698806  0.36053059  0.13653211    -0.03800
C924        C  0.85175183  0.38483866  0.11705816    -0.08300
C925        C  0.86444929  0.40827550  0.08513457     0.05200
C926        C  0.90339651  0.40540174  0.07173724    -0.03300
Br927      Br  0.92470574  0.43180107  0.02607907    -0.03000
H928        H  0.95858023  0.38076442  0.08145906     0.09100
H929        H  0.82189049  0.38553944  0.12738637     0.07200
Br930      Br  0.85466188  0.32892283  0.17809019    -0.03400
C931        C  0.90087355  0.34521552  0.91538932    -0.10100
C932        C  0.92792895  0.35954377  0.88714781     0.06100
C933        C  0.92753938  0.39934692  0.87641319    -0.03800
C934        C  0.90022525  0.42387249  0.89312781    -0.08300
C935        C  0.87230730  0.40938391  0.92019806     0.05200
C936        C  0.87300836  0.36976260  0.93169142    -0.03300
Br937      Br  0.83684605  0.34848035  0.97020729    -0.03000
H938        H  0.90089816  0.31481403  0.92418453     0.09100
H939        H  0.90026389  0.45427049  0.88429192     0.07200
Br940      Br  0.96373997  0.42168081  0.83866000    -0.03400
C941        C  0.91746340  0.60674775  0.92290390    -0.10100
C942        C  0.87866384  0.61670319  0.91769098     0.06100
C943        C  0.87133202  0.65101937  0.89551778    -0.03800
C944        C  0.90214986  0.67221157  0.87753345    -0.08300
C945        C  0.94067467  0.66104482  0.88142949     0.05200
C946        C  0.94817704  0.62841331  0.90536696    -0.03300
Br947      Br  0.99899014  0.60926809  0.91356302    -0.03000
H948        H  0.92422355  0.58124175  0.94013588     0.09100
H949        H  0.89590854  0.69771668  0.86001894     0.07200
Br950      Br  0.82079482  0.67212812  0.88806282    -0.03400
C951        C  0.94276274  0.61061643  0.11008220    -0.10100
C952        C  0.93108277  0.64325938  0.13012048     0.06100
C953        C  0.89150938  0.65140355  0.13344560    -0.03800
C954        C  0.86457505  0.62841699  0.11477335    -0.08300
C955        C  0.87606136  0.59677904  0.09252753     0.05200
C956        C  0.91595597  0.58740946  0.09106546    -0.03300
Br957      Br  0.93702286  0.54376677  0.06469209    -0.03000
H958        H  0.97285130  0.60266644  0.10978032     0.09100
H959        H  0.83439845  0.63614420  0.11718730     0.07200
Br960      Br  0.87213884  0.69378416  0.16240145    -0.03400
C961        C  0.09817539  0.04837704  0.78662823    -0.10100
C962        C  0.09309521  0.01539511  0.76396235     0.06100
C963        C  0.06508314  0.98687422  0.77551097    -0.03800
C964        C  0.04328070  0.99135452  0.80977702    -0.08300
C965        C  0.04904457  0.02400042  0.83274444     0.05200
C966        C  0.07620507  0.05295625  0.82064977    -0.03300
Br967      Br  0.08701501  0.09693731  0.85205544    -0.03000
H968        H  0.12062042  0.06977238  0.77881524     0.09100
H969        H  0.02355857  0.96811962  0.81984727     0.07200
Br970      Br  0.05965236  0.93895670  0.74873954    -0.03400
C971        C  0.08191674  0.00629078  0.22624868    -0.10100
C972        C  0.11033711  0.03401666  0.23346260     0.06100
C973        C  0.12139269  0.06163417  0.20400334    -0.03800
C974        C  0.10526685  0.05948616  0.16715480    -0.08300
C975        C  0.07797822  0.03011104  0.15915244     0.05200
C976        C  0.06586565  0.00380299  0.18995245    -0.03300
Br977      Br  0.02801760  0.96240882  0.18671916    -0.03000
H978        H  0.07346209  0.98495143  0.24864634     0.09100
H979        H  0.11471345  0.08023031  0.14462659     0.07200
Br980      Br  0.15733422  0.10349378  0.21319548    -0.03400
C981        C  0.18102415  0.47532909  0.23381347    -0.10100
C982        C  0.18775674  0.50949255  0.25451242     0.06100
C983        C  0.20170000  0.54304294  0.23345308    -0.03800
C984        C  0.21126643  0.54095484  0.19419278    -0.08300
C985        C  0.20725918  0.50613744  0.17426600     0.05200
C986        C  0.19035637  0.47333472  0.19433482    -0.03300
Br987      Br  0.17852766  0.42447217  0.17078314    -0.03000
H988        H  0.16967775  0.44912355  0.24784769     0.09100
H989        H  0.22309635  0.56686677  0.17947994     0.07200
Br990      Br  0.21147378  0.59259139  0.25649960    -0.03400
C991        C  0.27234010  0.55387807  0.39814714    -0.10100
C992        C  0.26475204  0.52416536  0.37194249     0.06100
C993        C  0.29511720  0.49976957  0.36060713    -0.03800
C994        C  0.33235889  0.50685821  0.37304382    -0.08300
C995        C  0.34021283  0.53600673  0.39937874     0.05200
C996        C  0.30978557  0.55937591  0.41263282    -0.03300
Br997      Br  0.31742399  0.59644765  0.45248013    -0.03000
H998        H  0.24919289  0.57249002  0.40750591     0.09100
H999        H  0.35501477  0.48724421  0.36444814     0.07200
Br1000     Br  0.28728649  0.45335072  0.33170010    -0.03400
C1001       C  0.79860200  0.51334580  0.19277919    -0.10100
C1002       C  0.76032898  0.50593562  0.18212136     0.06100
C1003       C  0.73264634  0.49532788  0.21109102    -0.03800
C1004       C  0.74284166  0.49476491  0.25014809    -0.08300
C1005       C  0.78097114  0.50423103  0.26174539     0.05200
C1006       C  0.80933874  0.51140035  0.23168514    -0.03300
Br1007     Br  0.86377786  0.51680081  0.24070541    -0.03000
H1008       H  0.82062080  0.51971941  0.17046191     0.09100
H1009       H  0.72049543  0.48544738  0.27083175     0.07200
Br1010     Br  0.68042384  0.48130052  0.19861210    -0.03400
C1011       C  0.72414806  0.54668407  0.41269422    -0.10100
C1012       C  0.73635970  0.50936923  0.40312203     0.06100
C1013       C  0.71438097  0.47681618  0.41664123    -0.03800
C1014       C  0.67918333  0.48192299  0.43634291    -0.08300
C1015       C  0.66478518  0.51921691  0.44237193     0.05200
C1016       C  0.68847827  0.55191398  0.43213674    -0.03300
Br1017     Br  0.67158074  0.60400142  0.43919342    -0.03000
H1018       H  0.74088470  0.57190887  0.40236454     0.09100
H1019       H  0.66166895  0.45646459  0.44481126     0.07200
Br1020     Br  0.72907658  0.42485938  0.40549118    -0.03400
C1021       C  0.85791372  0.95699800  0.80066547    -0.10100
C1022       C  0.87561497  0.98383222  0.77342542     0.06100
C1023       C  0.91038757  0.00249287  0.78369106    -0.03800
C1024       C  0.92356633  0.99826068  0.82120875    -0.08300
C1025       C  0.90322122  0.97559602  0.84978690     0.05200
C1026       C  0.87165425  0.95246896  0.83848262    -0.03300
Br1027     Br  0.84551982  0.91601728  0.87352023    -0.03000
H1028       H  0.83225633  0.94054310  0.79300695     0.09100
H1029       H  0.94944093  0.01455642  0.82862365     0.07200
Br1030     Br  0.94057433  0.03696604  0.75041153    -0.03400
C1031       C  0.89332104  0.96284587  0.23534314    -0.10100
C1032       C  0.88569761  0.00059977  0.24781973     0.06100
C1033       C  0.89983101  0.03275085  0.22589149    -0.03800
C1034       C  0.92084858  0.02709847  0.19176501    -0.08300
C1035       C  0.92663303  0.98963800  0.17763013     0.05200
C1036       C  0.91359972  0.95707927  0.20022630    -0.03300
Br1037     Br  0.91895959  0.90494756  0.18286370    -0.03000
H1038       H  0.88157805  0.93793692  0.25182711     0.09100
H1039       H  0.93046335  0.05245646  0.17462921     0.07200
Br1040     Br  0.88705460  0.08490341  0.23874326    -0.03400
C1041       C  0.20299079  0.54482337  0.75614268    -0.10100
C1042       C  0.20888854  0.51238512  0.73284746     0.06100
C1043       C  0.22925547  0.48086227  0.74932852    -0.03800
C1044       C  0.23909915  0.48079065  0.78847644    -0.08300
C1045       C  0.23110977  0.51246166  0.81196670     0.05200
C1046       C  0.21403758  0.54542021  0.79466180    -0.03300
Br1047     Br  0.20319190  0.59276418  0.82096637    -0.03000
H1048       H  0.19012463  0.57077884  0.74511454     0.09100
H1049       H  0.25350598  0.45582270  0.80053251     0.07200
Br1050     Br  0.24614949  0.43728188  0.72014962    -0.03400
C1051       C  0.25677449  0.46644295  0.58116444    -0.10100
C1052       C  0.24557916  0.50355962  0.59237635     0.06100
C1053       C  0.26681288  0.53649421  0.57881092    -0.03800
C1054       C  0.30080828  0.53184579  0.55725310    -0.08300
C1055       C  0.31465172  0.49462220  0.54994257     0.05200
C1056       C  0.29131927  0.46168851  0.55986016    -0.03300
Br1057     Br  0.30746499  0.40992069  0.54942636    -0.03000
H1058       H  0.24029158  0.44103304  0.59150994     0.09100
H1059       H  0.31822421  0.55743558  0.54892214     0.07200
Br1060     Br  0.25339515  0.58806504  0.59316292    -0.03400
C1061       C  0.80440735  0.53726939  0.76104021    -0.10100
C1062       C  0.78765704  0.50682587  0.73983855     0.06100
C1063       C  0.76652017  0.47718904  0.76090449    -0.03800
C1064       C  0.75863598  0.48091748  0.80022787    -0.08300
C1065       C  0.77312071  0.51254214  0.82054248     0.05200
C1066       C  0.79792186  0.53985522  0.80097991    -0.03300
Br1067     Br  0.82680225  0.57895174  0.82742562    -0.03000
H1068       H  0.82344275  0.55905326  0.74761963     0.09100
H1069       H  0.74091305  0.45858367  0.81507705     0.07200
Br1070     Br  0.74719086  0.43021151  0.73873774    -0.03400
C1071       C  0.68574117  0.46574842  0.63675873    -0.10100
C1072       C  0.71488593  0.48911266  0.61738890     0.06100
C1073       C  0.70739294  0.50346398  0.57980723    -0.03800
C1074       C  0.67169622  0.49543742  0.56346831    -0.08300
C1075       C  0.64146397  0.47563955  0.58435009     0.05200
C1076       C  0.64904417  0.45976339  0.62103439    -0.03300
Br1077     Br  0.60950628  0.43355500  0.65235566    -0.03000
H1078       H  0.69082759  0.45328863  0.66515161     0.09100
H1079       H  0.66630792  0.50787427  0.53506800     0.07200
Br1080     Br  0.74089389  0.53904112  0.55053391    -0.03400
C1081       C  0.95959725  0.27511800  0.30186964    -0.10100
C1082       C  0.99283392  0.28468640  0.32234017     0.06100
C1083       C  0.02233686  0.30765043  0.30337014    -0.03800
C1084       C  0.01833089  0.31981298  0.26474941    -0.08300
C1085       C  0.98549678  0.30927326  0.24365994     0.05200
C1086       C  0.95554372  0.28704494  0.26344235    -0.03300
Br1087     Br  0.90909854  0.26856885  0.23964028    -0.03000
H1088       H  0.93643804  0.25768575  0.31575938     0.09100
H1089       H  0.04200314  0.33656255  0.25145596     0.07200
Br1090     Br  0.06879082  0.32445673  0.32812269    -0.03400
C1091       C  0.01805332  0.27180433  0.70757474    -0.10100
C1092       C  0.98486378  0.27791247  0.68608168     0.06100
C1093       C  0.95235373  0.29379508  0.70535071    -0.03800
C1094       C  0.95363604  0.30245655  0.74476270    -0.08300
C1095       C  0.98706546  0.29657256  0.76658739     0.05200
C1096       C  0.01947815  0.28074212  0.74677074    -0.03300
Br1097     Br  0.06749993  0.26963243  0.77015091    -0.03000
H1098       H  0.04349689  0.25979713  0.69377511     0.09100
H1099       H  0.92774848  0.31399542  0.75749885     0.07200
Br1100     Br  0.90542656  0.30690588  0.68007143    -0.03400
C1101       C  0.83787728  0.42248033  0.40857708    -0.10100
C1102       C  0.85140557  0.44272135  0.37505765     0.06100
C1103       C  0.89001107  0.43768512  0.36202700    -0.03800
C1104       C  0.91323666  0.41046296  0.38077399    -0.08300
C1105       C  0.89882862  0.38917799  0.41337891     0.05200
C1106       C  0.86120846  0.39594477  0.42767967    -0.03300
Br1107     Br  0.84153832  0.37086867  0.47459645    -0.03000
H1108       H  0.80929851  0.42777796  0.42041125     0.09100
H1109       H  0.94265001  0.40634098  0.37027987     0.07200
Br1110     Br  0.91357468  0.47061227  0.32211776    -0.03400
C1111       C  0.86176129  0.45126781  0.58971776    -0.10100
C1112       C  0.83698590  0.43861441  0.62047211     0.06100
C1113       C  0.83521845  0.39885802  0.63065313    -0.03800
C1114       C  0.85999218  0.37326018  0.61219520    -0.08300
C1115       C  0.88717235  0.38623031  0.58335133     0.05200
C1116       C  0.88696571  0.42592017  0.57136890    -0.03300
Br1117     Br  0.91850399  0.44833270  0.52950213    -0.03000
H1118       H  0.86184399  0.48124225  0.57982600     0.09100
H1119       H  0.85755826  0.34281178  0.62048968     0.07200
Br1120     Br  0.79735643  0.37703005  0.66689454    -0.03400
C1121       C  0.11949918  0.37886255  0.60758832    -0.10100
C1122       C  0.08315135  0.38951918  0.59375476     0.06100
C1123       C  0.07026494  0.42758465  0.60029004    -0.03800
C1124       C  0.09480632  0.45448135  0.61776125    -0.08300
C1125       C  0.13126678  0.44370462  0.63064504     0.05200
C1126       C  0.14324715  0.40536140  0.62621227    -0.03300
Br1127     Br  0.19243357  0.38796236  0.64320066    -0.03000
H1128       H  0.13005178  0.34984528  0.60330931     0.09100
H1129       H  0.08529123  0.48395931  0.62161141     0.07200
Br1130     Br  0.01896111  0.44416550  0.58883875    -0.03400
C1131       C  0.13552831  0.38684693  0.41921525    -0.10100
C1132       C  0.09531905  0.39247357  0.41948622     0.06100
C1133       C  0.08083782  0.42592523  0.40130725    -0.03800
C1134       C  0.10657507  0.45315519  0.38360502    -0.08300
C1135       C  0.14675204  0.44775807  0.38375380     0.05200
C1136       C  0.16121175  0.41408810  0.40133299    -0.03300
Br1137     Br  0.21529983  0.40290495  0.39959525    -0.03000
H1138       H  0.14698242  0.36089768  0.43258531     0.09100
H1139       H  0.09515939  0.47825017  0.36864263     0.07200
Br1140     Br  0.02632438  0.43388673  0.39628949    -0.03400
C1141       C  0.08346647  0.13840741  0.63867783    -0.10100
C1142       C  0.07288254  0.13012933  0.60066606     0.06100
C1143       C  0.08193803  0.09330363  0.58577281    -0.03800
C1144       C  0.10319111  0.06724690  0.60787621    -0.08300
C1145       C  0.11259810  0.07527988  0.64597037     0.05200
C1146       C  0.10232112  0.11104038  0.66150187    -0.03300
Br1147     Br  0.11237129  0.12350188  0.71393532    -0.03000
H1148       H  0.07630658  0.16601694  0.65110658     0.09100
H1149       H  0.11116606  0.03972598  0.59574485     0.07200
Br1150     Br  0.06531777  0.07518679  0.53659887    -0.03400
C1151       C  0.88198592  0.10492791  0.59214855    -0.10100
C1152       C  0.91295836  0.12695514  0.60558144     0.06100
C1153       C  0.92651383  0.11957182  0.64298681    -0.03800
C1154       C  0.90762141  0.09131702  0.66706773    -0.08300
C1155       C  0.87622444  0.06910462  0.65389069     0.05200
C1156       C  0.86359099  0.07629448  0.61568421    -0.03300
Br1157     Br  0.82167888  0.04801849  0.59299895    -0.03000
H1158       H  0.87172979  0.11037253  0.56320190     0.09100
H1159       H  0.91690328  0.08766033  0.69629433     0.07200
Br1160     Br  0.97155614  0.14628192  0.66146662    -0.03400
C1161       C  0.87401203  0.11411575  0.41966813    -0.10100
C1162       C  0.90820662  0.13207651  0.40513698     0.06100
C1163       C  0.92307935  0.12178337  0.36860686    -0.03800
C1164       C  0.90374243  0.09346341  0.34731177    -0.08300
C1165       C  0.86877589  0.07601338  0.36134578     0.05200
C1166       C  0.85429403  0.08633149  0.39831017    -0.03300
Br1167     Br  0.80948400  0.06189800  0.42305497    -0.03000
H1168       H  0.86261456  0.12170422  0.44793878     0.09100
H1169       H  0.91581540  0.08547539  0.31949684     0.07200
Br1170     Br  0.96928834  0.14609930  0.34666552    -0.03400
C1171       C  0.07391653  0.13747757  0.36577520    -0.10100
C1172       C  0.08316094  0.13967488  0.40479991     0.06100
C1173       C  0.11254882  0.11659068  0.41955163    -0.03800
C1174       C  0.13070593  0.08992883  0.39564586    -0.08300
C1175       C  0.11952579  0.08566059  0.35707839     0.05200
C1176       C  0.09127491  0.11033226  0.34199338    -0.03300
Br1177     Br  0.07606705  0.11001560  0.28910067    -0.03000
H1178       H  0.05282858  0.15684795  0.35382691     0.09100
H1179       H  0.15281855  0.07166792  0.40754424     0.07200
Br1180     Br  0.13026452  0.12248043  0.47118734    -0.03400
C1181       C  0.96363107  0.69942499  0.26639776    -0.10100
C1182       C  0.99669021  0.70766983  0.24251437     0.06100
C1183       C  0.02654466  0.73117526  0.25789786    -0.03800
C1184       C  0.02353475  0.74382784  0.29591445    -0.08300
C1185       C  0.99058973  0.73515841  0.31935692     0.05200
C1186       C  0.96024106  0.71285932  0.30389253    -0.03300
Br1187     Br  0.91252680  0.69922869  0.33105711    -0.03000
H1188       H  0.93845982  0.68450080  0.25597810     0.09100
H1189       H  0.04700617  0.76132010  0.30697093     0.07200
Br1190     Br  0.07071412  0.75082492  0.22821823    -0.03400
C1191       C  0.98121107  0.69896451  0.69194879    -0.10100
C1192       C  0.99145024  0.73606476  0.67727328     0.06100
C1193       C  0.00919295  0.76318001  0.70096558    -0.03800
C1194       C  0.01388622  0.75394164  0.73966168    -0.08300
C1195       C  0.00026036  0.71810400  0.75603792     0.05200
C1196       C  0.98693074  0.68922538  0.73073742    -0.03300
Br1197     Br  0.98054854  0.63526041  0.74548263    -0.03000
H1198       H  0.97073609  0.67692032  0.67266976     0.09100
H1199       H  0.02979978  0.77488606  0.75605882     0.07200
Br1200     Br  0.02807278  0.81321333  0.68211308    -0.03400
C1201       C  0.09477563  0.59704206  0.42829244    -0.10100
C1202       C  0.08701461  0.63139167  0.40756515     0.06100
C1203       C  0.10324664  0.63663293  0.36995678    -0.03800
C1204       C  0.12764290  0.60862444  0.35468187    -0.08300
C1205       C  0.13550245  0.57381725  0.37515943     0.05200
C1206       C  0.11841476  0.56842332  0.41280274    -0.03300
Br1207     Br  0.12335329  0.52323870  0.44561510    -0.03000
H1208       H  0.08248416  0.59242838  0.45724640     0.09100
H1209       H  0.14040257  0.61441274  0.32615759     0.07200
Br1210     Br  0.09116847  0.67969157  0.33650033    -0.03400
C1211       C  0.07636038  0.61155053  0.61760328    -0.10100
C1212       C  0.08827118  0.62767763  0.58157208     0.06100
C1213       C  0.12354765  0.61629985  0.56443581    -0.03800
C1214       C  0.14592229  0.58847148  0.58310682    -0.08300
C1215       C  0.13445160  0.57274469  0.61957744     0.05200
C1216       C  0.09904165  0.58428779  0.63667398    -0.03300
Br1217     Br  0.07867461  0.56190757  0.68458973    -0.03000
H1218       H  0.04922441  0.62016317  0.63093003     0.09100
H1219       H  0.17264946  0.57954194  0.56930488     0.07200
Br1220     Br  0.14276589  0.63878540  0.51617954    -0.03400
C1221       C  0.85236777  0.62947093  0.58672712    -0.10100
C1222       C  0.89164768  0.62066922  0.58126540     0.06100
C1223       C  0.90402080  0.58293005  0.59117139    -0.03800
C1224       C  0.87717554  0.55560991  0.60714880    -0.08300
C1225       C  0.83790661  0.56457658  0.61201329     0.05200
C1226       C  0.82567704  0.60191081  0.60191127    -0.03300
Br1227     Br  0.77324248  0.61744453  0.61022373    -0.03000
H1228       H  0.84216336  0.65809510  0.57907700     0.09100
H1229       H  0.88741185  0.52790089  0.61759041     0.07200
Br1230     Br  0.95708563  0.56745316  0.58649933    -0.03400
C1231       C  0.88517205  0.56126038  0.38774803    -0.10100
C1232       C  0.84999635  0.57188477  0.37171108     0.06100
C1233       C  0.83794752  0.61037119  0.37455357    -0.03800
C1234       C  0.86091189  0.63755140  0.39344583    -0.08300
C1235       C  0.89656312  0.62741388  0.40943680     0.05200
C1236       C  0.90873588  0.58846795  0.40606839    -0.03300
Br1237     Br  0.95700020  0.56963402  0.42485743    -0.03000
H1238       H  0.89442958  0.53148783  0.38593650     0.09100
H1239       H  0.85036614  0.66678559  0.39599976     0.07200
Br1240     Br  0.78919464  0.62665786  0.35526648    -0.03400
C1241       C  0.06373524  0.93087981  0.40428466    -0.10100
C1242       C  0.06810129  0.89203709  0.39356212     0.06100
C1243       C  0.08606235  0.88522562  0.35697324    -0.03800
C1244       C  0.10316301  0.91622705  0.33511051    -0.08300
C1245       C  0.10106864  0.95470358  0.34736898     0.05200
C1246       C  0.07918555  0.96189740  0.38143535    -0.03300
Br1247     Br  0.07017535  0.01270613  0.40015935    -0.03000
H1248       H  0.04866900  0.93744838  0.43112861     0.09100
H1249       H  0.11868172  0.91020236  0.30833976     0.07200
Br1250     Br  0.08707035  0.83528740  0.33338071    -0.03400
C1251       C  0.87650262  0.90692681  0.42420597    -0.10100
C1252       C  0.90767516  0.88847391  0.40664006     0.06100
C1253       C  0.92036620  0.89972093  0.36895505    -0.03800
C1254       C  0.90084128  0.92880717  0.34903620    -0.08300
C1255       C  0.86855141  0.94648169  0.36613882     0.05200
C1256       C  0.85674813  0.93560239  0.40431727    -0.03300
Br1257     Br  0.81511738  0.95943012  0.43187014    -0.03000
H1258       H  0.86723488  0.89865242  0.45351221     0.09100
H1259       H  0.91056955  0.93724484  0.31994189     0.07200
Br1260     Br  0.96454175  0.87699997  0.34416170    -0.03400
C1261       C  0.91863080  0.91824784  0.60197791    -0.10100
C1262       C  0.90462157  0.87961541  0.60467238     0.06100
C1263       C  0.87388654  0.87084639  0.63196977    -0.03800
C1264       C  0.85663653  0.90076704  0.65295361    -0.08300
C1265       C  0.87003504  0.93957923  0.64914907     0.05200
C1266       C  0.90240677  0.94770367  0.62399766    -0.03300
Br1267     Br  0.92612841  0.99812641  0.61606236    -0.03000
H1268       H  0.94279020  0.92593797  0.58246334     0.09100
H1269       H  0.83281410  0.89346592  0.67303541     0.07200
Br1270     Br  0.85354353  0.81921160  0.64320286    -0.03400
C1271       C  0.05688154  0.91871274  0.60354258    -0.10100
C1272       C  0.07408381  0.88229212  0.60159465     0.06100
C1273       C  0.10587935  0.87520936  0.62563364    -0.03800
C1274       C  0.12075385  0.90494616  0.64846960    -0.08300
C1275       C  0.10537935  0.94262900  0.64835959     0.05200
C1276       C  0.07159178  0.94847928  0.62628624    -0.03300
Br1277     Br  0.04242248  0.99504186  0.62286204    -0.03000
H1278       H  0.03139127  0.92438719  0.58687380     0.09100
H1279       H  0.14494285  0.89818883  0.66650785     0.07200
Br1280     Br  0.13177396  0.82638934  0.62864668    -0.03400
C1281       C  0.18026976  0.81022464  0.51734184    -0.10100
C1282       C  0.17038487  0.77811659  0.49537209     0.06100
C1283       C  0.19931201  0.75863848  0.47494629    -0.03800
C1284       C  0.23799810  0.76942598  0.47997479    -0.08300
C1285       C  0.24858647  0.79954122  0.50515423     0.05200
C1286       C  0.21862700  0.82232073  0.52092042    -0.03300
Br1287     Br  0.22520993  0.87327977  0.54160850    -0.03000
H1288       H  0.15757782  0.82713512  0.53058309     0.09100
H1289       H  0.25999308  0.75393706  0.46409592     0.07200
Br1290     Br  0.18782285  0.71672839  0.44107352    -0.03400
C1291       C  0.37326183  0.71825906  0.55192721    -0.10100
C1292       C  0.37878100  0.74263084  0.51876239     0.06100
C1293       C  0.39876606  0.72827016  0.48657328    -0.03800
C1294       C  0.41172826  0.69030552  0.48735076    -0.08300
C1295       C  0.40455751  0.66474230  0.51952488     0.05200
C1296       C  0.38579151  0.67961889  0.55260923    -0.03300
Br1297     Br  0.37351075  0.64843810  0.59819739    -0.03000
H1298       H  0.35680249  0.72862906  0.57656521     0.09100
H1299       H  0.42671102  0.68061222  0.46154457     0.07200
Br1300     Br  0.40526389  0.75708644  0.43873214    -0.03400
C1301       C  0.19718183  0.24964321  0.47349412    -0.10100
C1302       C  0.17169234  0.23840098  0.50422319     0.06100
C1303       C  0.18491041  0.21216447  0.53263994    -0.03800
C1304       C  0.22287825  0.19920116  0.53083138    -0.08300
C1305       C  0.24949079  0.21175213  0.50119093     0.05200
C1306       C  0.23541559  0.23664592  0.47164878    -0.03300
Br1307     Br  0.26661932  0.25426869  0.42758385    -0.03000
H1308       H  0.18734472  0.26880278  0.45066061     0.09100
H1309       H  0.23040756  0.17892412  0.55327065     0.07200
Br1310     Br  0.15251608  0.19011689  0.57380666    -0.03400
C1311       C  0.41146440  0.27544825  0.48227276    -0.10100
C1312       C  0.38576198  0.26273606  0.51218516     0.06100
C1313       C  0.38406788  0.28363465  0.54683436    -0.03800
C1314       C  0.40531252  0.31853213  0.54981363    -0.08300
C1315       C  0.42833012  0.33296750  0.51856044     0.05200
C1316       C  0.43258503  0.31043885  0.48521428    -0.03300
Br1317     Br  0.46501361  0.32794790  0.44199898    -0.03000
H1318       H  0.41326953  0.25947592  0.45568141     0.09100
H1319       H  0.40183944  0.33562103  0.57553956     0.07200
Br1320     Br  0.35161496  0.26661282  0.59014387    -0.03400
C1321       C  0.67493958  0.27758471  0.97746589    -0.10100
C1322       C  0.69514538  0.25088203  0.00021682     0.06100
C1323       C  0.72298084  0.26597522  0.02598747    -0.03800
C1324       C  0.73198699  0.30577827  0.02572046    -0.08300
C1325       C  0.71371788  0.33149883  0.00063273     0.05200
C1326       C  0.68424773  0.31714530  0.97714930    -0.03300
Br1327     Br  0.65400735  0.34991976  0.94508136    -0.03000
H1328       H  0.65156132  0.26853147  0.95956116     0.09100
H1329       H  0.75399711  0.31662363  0.04474233     0.07200
Br1330     Br  0.75094635  0.23453815  0.06198869    -0.03400
C1331       C  0.80554544  0.07693559  0.99876932    -0.10100
C1332       C  0.83457787  0.09346406  0.97362952     0.06100
C1333       C  0.82490043  0.12421199  0.94858628    -0.03800
C1334       C  0.78742987  0.13910518  0.95079373    -0.08300
C1335       C  0.75955226  0.12477976  0.97860537     0.05200
C1336       C  0.76892846  0.09281184  0.00233685    -0.03300
Br1337     Br  0.73648151  0.07326208  0.04470744    -0.03000
H1338       H  0.81225909  0.05292792  0.01808007     0.09100
H1339       H  0.78079327  0.16370249  0.93222060     0.07200
Br1340     Br  0.86257597  0.14994008  0.91459279    -0.03400
C1341       C  0.28865288  0.26859932  0.03151793    -0.10100
C1342       C  0.27955461  0.24379948  0.00100958     0.06100
C1343       C  0.25938439  0.26042864  0.96948405    -0.03800
C1344       C  0.24934683  0.29981356  0.96925030    -0.08300
C1345       C  0.25786741  0.32391842  0.00023077     0.05200
C1346       C  0.27778462  0.30749724  0.03174860    -0.03300
Br1347     Br  0.29298159  0.33586441  0.07634090    -0.03000
H1348       H  0.30441425  0.25868433  0.05604880     0.09100
H1349       H  0.23423894  0.31155056  0.94468893     0.07200
Br1350     Br  0.24381307  0.23138478  0.92548282    -0.03400
C1351       C  0.17616239  0.07163449  0.02444077    -0.10100
C1352       C  0.16347114  0.06006482  0.98802225     0.06100
C1353       C  0.18780920  0.06775954  0.95522900    -0.03800
C1354       C  0.22222120  0.09010420  0.95905620    -0.08300
C1355       C  0.23281119  0.10431045  0.99532926     0.05200
C1356       C  0.20989779  0.09396621  0.02817158    -0.03300
Br1357     Br  0.22123752  0.11315871  0.07837815    -0.03000
H1358       H  0.15814007  0.06558441  0.05012651     0.09100
H1359       H  0.23934928  0.09835426  0.93338587     0.07200
Br1360     Br  0.17370755  0.05147392  0.90473514    -0.03400
C1361       C  0.78032296  0.75644493  0.48089906    -0.10100
C1362       C  0.80689902  0.77837443  0.50181722     0.06100
C1363       C  0.79328353  0.81141128  0.52076181    -0.03800
C1364       C  0.75360154  0.81963877  0.52191521    -0.08300
C1365       C  0.72601409  0.79625537  0.50324186     0.05200
C1366       C  0.74080804  0.76576595  0.48019291    -0.03300
Br1367     Br  0.71045717  0.73743058  0.44395672    -0.03000
H1368       H  0.79057706  0.73239350  0.46408913     0.09100
H1369       H  0.74500453  0.84588134  0.53596017     0.07200
Br1370     Br  0.82821429  0.84945902  0.54078054    -0.03400
C1371       C  0.59229833  0.73159410  0.45889638    -0.10100
C1372       C  0.58727010  0.74945614  0.49479639     0.06100
C1373       C  0.55754795  0.73548579  0.52041961    -0.03800
C1374       C  0.53691531  0.70135752  0.51208861    -0.08300
C1375       C  0.54452447  0.68156622  0.47778644     0.05200
C1376       C  0.57082961  0.69810776  0.45014425    -0.03300
Br1377     Br  0.58047642  0.67413695  0.40165340    -0.03000
H1378       H  0.61429013  0.74272918  0.43834476     0.09100
H1379       H  0.51654029  0.68887273  0.53357458     0.07200
Br1380     Br  0.54583084  0.75987328  0.56824194    -0.03400
C1381       C  0.70545961  0.75213831  0.03583158    -0.10100
C1382       C  0.70453678  0.77403382  0.00086836     0.06100
C1383       C  0.72050234  0.75679753  0.96730927    -0.03800
C1384       C  0.73152199  0.71775399  0.96849301    -0.10700
C1385       C  0.72930485  0.69517569  0.00301348     0.05200
C1386       C  0.71689319  0.71352259  0.03728925    -0.03300
Br1387     Br  0.71391372  0.68895424  0.08796976    -0.03000
H1388       H  0.69848133  0.76504264  0.06317580     0.09100
H1389       H  0.74247679  0.70516103  0.94207726     0.07200
Br1390     Br  0.73118824  0.78489946  0.91938464    -0.03400
C1391       C  0.75932544  0.93750871  0.98615945    -0.10100
C1392       C  0.74574950  0.91283740  0.01630552     0.06100
C1393       C  0.76271188  0.91465126  0.05294678    -0.03800
C1394       C  0.79585327  0.93806509  0.05751996    -0.08300
C1395       C  0.81215044  0.95917675  0.02577610     0.05200
C1396       C  0.79263037  0.96031155  0.99051182    -0.03300
Br1397     Br  0.81349236  0.98825443  0.94574608    -0.03000
H1398       H  0.74594872  0.93656338  0.95818515     0.09100
H1399       H  0.81080461  0.93692845  0.08467364     0.07200
Br1400     Br  0.74343795  0.88375665  0.09654663    -0.03400
C1401       C  0.31300907  0.74048396  0.01761535    -0.10100
C1402       C  0.29222939  0.76837230  0.99682496     0.06100
C1403       C  0.26559407  0.75471278  0.96910578    -0.03800
C1404       C  0.25701934  0.71492697  0.96668366    -0.08300
C1405       C  0.27497971  0.68800944  0.99073303     0.05200
C1406       C  0.30477434  0.70090231  0.01451078    -0.03300
Br1407     Br  0.33703565  0.66561417  0.04161300    -0.03000
H1408       H  0.33569468  0.74857327  0.03677584     0.09100
H1409       H  0.23528156  0.70510668  0.94685445     0.07200
Br1410     Br  0.23805748  0.78839201  0.93478362    -0.03400
C1411       C  0.16385779  0.92128961  0.05745696    -0.10100
C1412       C  0.13566909  0.90526300  0.03348429     0.06100
C1413       C  0.14732734  0.87815966  0.00590028    -0.03800
C1414       C  0.18577949  0.86755643  0.00271869    -0.08300
C1415       C  0.21432567  0.88280486  0.02673105     0.05200
C1416       C  0.20303231  0.91062506  0.05406349    -0.03300
Br1417     Br  0.23921394  0.93640058  0.08622228    -0.03000
H1418       H  0.15585403  0.94390611  0.07720995     0.09100
H1419       H  0.19348848  0.84723030  0.98055291     0.07200
Br1420     Br  0.11270211  0.85603746  0.96951604    -0.03400
C1421       C  0.28440591  0.97910642  0.26350161    -0.10100
C1422       C  0.31134620  0.00367218  0.28082098     0.06100
C1423       C  0.29893144  0.02659802  0.31165887    -0.03800
C1424       C  0.25972282  0.02884016  0.32129900    -0.08300
C1425       C  0.23182927  0.00747180  0.30138060     0.05200
C1426       C  0.24508010  0.97996967  0.27423334    -0.03300
Br1427     Br  0.21126226  0.94285315  0.25040689    -0.03000
H1428       H  0.29390703  0.95940305  0.24137682     0.09100
H1429       H  0.25189924  0.04694860  0.34509258     0.07200
Br1430     Br  0.33428210  0.05225107  0.34461074    -0.03400
C1431       C  0.69674557  0.03765771  0.26829369    -0.10100
C1432       C  0.67273902  0.00503199  0.27739245     0.06100
C1433       C  0.68864953  0.97443981  0.29940622    -0.03800
C1434       C  0.72673872  0.97704624  0.31189391    -0.08300
C1435       C  0.75129093  0.00920536  0.30228510     0.05200
C1436       C  0.73550790  0.03968489  0.27960335    -0.03300
Br1437     Br  0.76547651  0.08424198  0.26067750    -0.03000
H1438       H  0.68563524  0.06152879  0.25125513     0.09100
H1439       H  0.73681089  0.95230402  0.32786774     0.07200
Br1440     Br  0.66122029  0.92735399  0.31406886    -0.03400
C1441       C  0.36818844  0.91914623  0.39954218    -0.10100
C1442       C  0.40591618  0.91068112  0.38790889     0.06100
C1443       C  0.42536195  0.88067224  0.40690497    -0.03800
C1444       C  0.40642752  0.85884584  0.43666074    -0.08300
C1445       C  0.36763383  0.86555919  0.44727046     0.05200
C1446       C  0.34898596  0.89745095  0.42911396    -0.03300
Br1447     Br  0.29887835  0.91631811  0.44401666    -0.03000
H1448       H  0.35367703  0.94314999  0.38570086     0.09100
H1449       H  0.42208047  0.83603571  0.45084794     0.07200
Br1450     Br  0.47716149  0.86738993  0.39206979    -0.03400
C1451       C  0.58623911  0.89108032  0.45049761    -0.10100
C1452       C  0.61286418  0.86309271  0.43886391     0.06100
C1453       C  0.61878147  0.85722758  0.39901599    -0.03800
C1454       C  0.59846427  0.87919220  0.37219580    -0.08300
C1455       C  0.57380676  0.90916545  0.38360861     0.05200
C1456       C  0.56734869  0.91452033  0.42374913    -0.03300
Br1457     Br  0.53217452  0.95140668  0.44534347    -0.03000
H1458       H  0.57970836  0.89485920  0.48078777     0.09100
H1459       H  0.60240676  0.87263896  0.34192109     0.07200
Br1460     Br  0.65223632  0.81838906  0.37877409    -0.03400
C1461       C  0.36469275  0.16117062  0.39759851    -0.10100
C1462       C  0.36770158  0.14976158  0.43661910     0.06100
C1463       C  0.39094004  0.11765167  0.44557290    -0.03800
C1464       C  0.41013940  0.09793954  0.41625905    -0.08300
C1465       C  0.40721200  0.10892576  0.37716216     0.05200
C1466       C  0.38441311  0.14165514  0.36801397    -0.03300
Br1467     Br  0.37919314  0.16265576  0.31644573    -0.03000
H1468       H  0.34741127  0.18598989  0.39010405     0.09100
H1469       H  0.42693686  0.07299893  0.42441108     0.07200
Br1470     Br  0.39635735  0.09607545  0.49642950    -0.03400
C1471       C  0.46030595  0.20805705  0.23476656    -0.10100
C1472       C  0.49410729  0.18742011  0.22691229     0.06100
C1473       C  0.52565584  0.20724730  0.20789271    -0.03800
C1474       C  0.52284803  0.24661487  0.19751801    -0.08300
C1475       C  0.48898474  0.26769383  0.20555172     0.05200
C1476       C  0.45738947  0.24729715  0.22440881    -0.03300
Br1477     Br  0.40891278  0.27082138  0.23773869    -0.03000
H1478       H  0.43559161  0.19354510  0.24915505     0.09100
H1479       H  0.54787918  0.25980754  0.18302871     0.07200
Br1480     Br  0.57299693  0.18242572  0.19295814    -0.03400
C1481       C  0.51848459  0.80049177  0.23856675    -0.10100
C1482       C  0.48562784  0.82298033  0.23300292     0.06100
C1483       C  0.45333952  0.80520743  0.21540815    -0.03800
C1484       C  0.45448938  0.76631276  0.20443666    -0.08300
C1485       C  0.48763354  0.74370839  0.20932966     0.05200
C1486       C  0.51982030  0.76171340  0.22720813    -0.03300
Br1487     Br  0.56717734  0.73566799  0.23763579    -0.03000
H1488       H  0.54367691  0.81318116  0.25189097     0.09100
H1489       H  0.42869844  0.75447008  0.19201933     0.07200
Br1490     Br  0.40709392  0.83208938  0.20246097    -0.03400
C1491       C  0.62685287  0.10996578  0.12866854    -0.10100
C1492       C  0.59371881  0.08877890  0.11754236     0.06100
C1493       C  0.58702126  0.08563047  0.07738084    -0.03800
C1494       C  0.61324609  0.10287464  0.05018229    -0.08300
C1495       C  0.64524198  0.12508287  0.06159697     0.05200
C1496       C  0.65201330  0.12841705  0.10140021    -0.03300
Br1497     Br  0.69547856  0.15700565  0.12065845    -0.03000
H1498       H  0.63331476  0.11274776  0.15896666     0.09100
H1499       H  0.60748718  0.10041602  0.01975495     0.07200
Br1500     Br  0.54184032  0.06111296  0.05649586    -0.03400
C1501       C  0.57260294  0.88211515  0.10908042    -0.10100
C1502       C  0.58548133  0.91665249  0.12557290     0.06100
C1503       C  0.62138937  0.93355629  0.11395432    -0.03800
C1504       C  0.64409281  0.91585757  0.08586807    -0.08300
C1505       C  0.63162685  0.88106242  0.06933593     0.05200
C1506       C  0.59541623  0.86412087  0.08103500    -0.03300
Br1507     Br  0.57396675  0.81875810  0.05739485    -0.03000
H1508       H  0.54464094  0.86938104  0.11776856     0.09100
H1509       H  0.67150321  0.92950442  0.07678589     0.07200
Br1510     Br  0.63999318  0.98128500  0.13526239    -0.03400
C1511       C  0.35888167  0.89941585  0.14033676    -0.10100
C1512       C  0.39588822  0.91411980  0.12869627     0.06100
C1513       C  0.40871529  0.90912934  0.08987841    -0.03800
C1514       C  0.38378406  0.89190708  0.06370501    -0.08300
C1515       C  0.34589315  0.88051596  0.07488584     0.05200
C1516       C  0.33428190  0.88218914  0.11396242    -0.03300
Br1517     Br  0.28618639  0.85927654  0.13306411    -0.03000
H1518       H  0.34870948  0.90151958  0.17009518     0.09100
H1519       H  0.39392849  0.88762921  0.03421627     0.07200
Br1520     Br  0.45988886  0.92352451  0.07038555    -0.03400
C1521       C  0.40203649  0.12787181  0.11025980    -0.10100
C1522       C  0.39442731  0.08903772  0.12126768     0.06100
C1523       C  0.36381866  0.06883850  0.10382222    -0.03800
C1524       C  0.34072129  0.08792960  0.07667755    -0.08300
C1525       C  0.34778229  0.12722766  0.06583140     0.05200
C1526       C  0.37992506  0.14675493  0.08230886    -0.03300
Br1527     Br  0.39849576  0.19770541  0.06581778    -0.03000
H1528       H  0.42604274  0.14341397  0.12289843     0.09100
H1529       H  0.31677071  0.07200424  0.06445496     0.07200
Br1530     Br  0.35196973  0.01540223  0.11715918    -0.03400
C1531       C  0.78906958  0.24511896  0.47045238    -0.10100
C1532       C  0.80940246  0.23710748  0.50424133     0.06100
C1533       C  0.78918886  0.21849805  0.53589268    -0.03800
C1534       C  0.74998267  0.20846382  0.53303391    -0.08300
C1535       C  0.72936807  0.21637340  0.49918108     0.05200
C1536       C  0.74978300  0.23538543  0.46769183    -0.03300
Br1537     Br  0.72591401  0.25093659  0.42020326    -0.03000
H1538       H  0.80370256  0.25962895  0.44586472     0.09100
H1539       H  0.73628781  0.19494207  0.55831535     0.07200
Br1540     Br  0.81249676  0.20434066  0.58405916    -0.03400
C1541       C  0.61593905  0.11268224  0.43639799    -0.10100
C1542       C  0.61715661  0.15303146  0.43029226     0.06100
C1543       C  0.60098033  0.16899372  0.39670415    -0.03800
C1544       C  0.58413826  0.14450738  0.36973132    -0.08300
C1545       C  0.58232218  0.10400525  0.37595323     0.05200
C1546       C  0.59870456  0.08815048  0.40969364    -0.03300
Br1547     Br  0.60078411  0.03331066  0.41982705    -0.03000
H1548       H  0.62842980  0.10021321  0.46216053     0.09100
H1549       H  0.57164517  0.15727113  0.34411417     0.07200
Br1550     Br  0.60118459  0.22389014  0.38623442    -0.03400
C1551       C  0.61819474  0.30243346  0.44896465    -0.10100
C1552       C  0.60187239  0.27505247  0.47602273     0.06100
C1553       C  0.56680700  0.28336311  0.49530752    -0.03800
C1554       C  0.55189519  0.32033765  0.49104971    -0.08300
C1555       C  0.57111067  0.34942811  0.46788274     0.05200
C1556       C  0.60311597  0.33946363  0.44468427    -0.03300
Br1557     Br  0.62980210  0.37563619  0.40987560    -0.03000
H1558       H  0.64429643  0.29571500  0.43263023     0.09100
H1559       H  0.52609361  0.32708510  0.50789232     0.07200
Br1560     Br  0.53990556  0.24819439  0.53124930    -0.03400
C1561       C  0.25047536  0.97709573  0.70044740    -0.10100
C1562       C  0.22682550  0.00913448  0.70751574     0.06100
C1563       C  0.24366114  0.04065994  0.72767289    -0.03800
C1564       C  0.28224770  0.03956108  0.73954987    -0.08300
C1565       C  0.30540992  0.00725989  0.73288534     0.05200
C1566       C  0.28875839  0.97570495  0.71296189    -0.03300
Br1567     Br  0.31602533  0.92932081  0.70060421    -0.03000
H1568       H  0.23951028  0.95190833  0.68609466     0.09100
H1569       H  0.29404492  0.06414948  0.75469506     0.07200
Br1570     Br  0.21547875  0.08601218  0.74179282    -0.03400
C1571       C  0.69091357  0.97785722  0.73545390    -0.10100
C1572       C  0.67020113  0.01142644  0.72656067     0.06100
C1573       C  0.69009747  0.04238544  0.70641058    -0.03800
C1574       C  0.72964100  0.03965261  0.69708697    -0.08300
C1575       C  0.75103710  0.00651822  0.70721161     0.05200
C1576       C  0.73031907  0.97491182  0.72569426    -0.03300
Br1577     Br  0.75375845  0.92644407  0.73916842    -0.03000
H1578       H  0.67635283  0.95337032  0.75025445     0.09100
H1579       H  0.74266058  0.06420110  0.68160636     0.07200
Br1580     Br  0.66548150  0.08887893  0.68849925    -0.03400
C1581       C  0.36571700  0.08774036  0.60924956    -0.10100
C1582       C  0.39982525  0.10254148  0.62482092     0.06100
C1583       C  0.41564017  0.13838599  0.61132213    -0.03800
C1584       C  0.39650321  0.15979522  0.58332617    -0.08300
C1585       C  0.36197286  0.14554785  0.56795682     0.05200
C1586       C  0.34683349  0.10871510  0.58059192    -0.03300
Br1587     Br  0.30378015  0.08329743  0.55664151    -0.03000
H1588       H  0.35424986  0.05946731  0.61884486     0.09100
H1589       H  0.40882802  0.18757344  0.57332975     0.07200
Br1590     Br  0.46416573  0.15827927  0.62913503    -0.03400
C1591       C  0.57537278  0.13481367  0.54971304    -0.10100
C1592       C  0.60129471  0.16418483  0.56028370     0.06100
C1593       C  0.60579238  0.17152744  0.59992742    -0.03800
C1594       C  0.58716036  0.14728209  0.62792802    -0.08300
C1595       C  0.56350054  0.11550730  0.61755548     0.05200
C1596       C  0.55622114  0.11077812  0.57761070    -0.03300
Br1597     Br  0.52107452  0.07266663  0.55757723    -0.03000
H1598       H  0.57110386  0.12942444  0.51935685     0.09100
H1599       H  0.59194944  0.15313310  0.65808690     0.07200
Br1600     Br  0.63642991  0.21450037  0.61788319    -0.03400
C1601       C  0.60294026  0.90340046  0.55867660    -0.10100
C1602       C  0.61180925  0.86494737  0.56869024     0.06100
C1603       C  0.60321166  0.85105289  0.60652369    -0.03800
C1604       C  0.58381427  0.87459520  0.63282305    -0.08300
C1605       C  0.57344270  0.91275770  0.62256321     0.05200
C1606       C  0.58378187  0.92726982  0.58498724    -0.03300
Br1607     Br  0.57526130  0.97994860  0.56842773    -0.03000
H1608       H  0.61212361  0.91544143  0.53069355     0.09100
H1609       H  0.57694912  0.86289389  0.66161094     0.07200
Br1610     Br  0.61884203  0.80070588  0.62412040    -0.03400
C1611       C  0.37562492  0.92619107  0.60265267    -0.10100
C1612       C  0.39903576  0.90907115  0.63045068     0.06100
C1613       C  0.40310603  0.86838584  0.63127134    -0.03800
C1614       C  0.38524359  0.84574337  0.60339132    -0.08300
C1615       C  0.36170318  0.86286129  0.57571385     0.05200
C1616       C  0.35628308  0.90334389  0.57601792    -0.03300
Br1617     Br  0.32287542  0.92906321  0.54092004    -0.03000
H1618       H  0.37169696  0.95734013  0.60223078     0.09100
H1619       H  0.38931879  0.81462899  0.60360825     0.07200
Br1620     Br  0.43351467  0.84254196  0.66928345    -0.03400
C1621       C  0.46083804  0.21771170  0.75851341    -0.10100
C1622       C  0.49219953  0.19377328  0.76666166     0.06100
C1623       C  0.52534385  0.21144674  0.78299411    -0.03800
C1624       C  0.52567292  0.25082796  0.79238673    -0.08300
C1625       C  0.49400847  0.27476709  0.78553292     0.05200
C1626       C  0.46177470  0.25763337  0.76669583    -0.03300
Br1627     Br  0.41796686  0.28677949  0.75019602    -0.03000
H1628       H  0.43549640  0.20546112  0.74507324     0.09100
H1629       H  0.55172734  0.26231209  0.80463615     0.07200
Br1630     Br  0.57191263  0.18440341  0.79472487    -0.03400
C1631       C  0.51799883  0.80634411  0.75793279    -0.10100
C1632       C  0.48566781  0.82640056  0.77141104     0.06100
C1633       C  0.45658467  0.80561451  0.79340040    -0.03800
C1634       C  0.46033615  0.76578842  0.80106989    -0.08300
C1635       C  0.49287928  0.74553753  0.78763402     0.05200
C1636       C  0.52213552  0.76687179  0.76602563    -0.03300
Br1637     Br  0.56928619  0.74470286  0.74635334    -0.03000
H1638       H  0.54073161  0.82159539  0.74108113     0.09100
H1639       H  0.43767475  0.75152198  0.81842893     0.07200
Br1640     Br  0.41210710  0.82959526  0.81640929    -0.03400
C1641       C  0.40946102  0.12711539  0.89859150    -0.10100
C1642       C  0.39461413  0.09339015  0.88211515     0.06100
C1643       C  0.35726559  0.07936945  0.89263657    -0.03800
C1644       C  0.33540284  0.09895567  0.92002614    -0.08300
C1645       C  0.34984053  0.13303644  0.93650559     0.05200
C1646       C  0.38730974  0.14722246  0.92556548    -0.03300
Br1647     Br  0.41072105  0.19233602  0.94762654    -0.03000
H1648       H  0.43821909  0.13799890  0.89015028     0.09100
H1649       H  0.30688634  0.08752861  0.92835738     0.07200
Br1650     Br  0.33496967  0.03373375  0.87036877    -0.03400
C1651       C  0.37971146  0.94837040  0.92411144    -0.10100
C1652       C  0.37597628  0.93620091  0.88574663     0.06100
C1653       C  0.34312286  0.91236139  0.87777637    -0.03800
C1654       C  0.32009155  0.89611420  0.90824939    -0.08300
C1655       C  0.32697274  0.90435404  0.94712140     0.05200
C1656       C  0.35481352  0.93404528  0.95429585    -0.03300
Br1657     Br  0.35999694  0.95867681  0.00296817    -0.03000
H1658       H  0.40212512  0.96945734  0.93086391     0.09100
H1659       H  0.29694658  0.87580824  0.90148925     0.07200
Br1660     Br  0.32613515  0.90082175  0.82668133    -0.03400
C1661       C  0.58253725  0.92987675  0.91691335    -0.10100
C1662       C  0.59078708  0.92330525  0.87763699     0.06100
C1663       C  0.62356865  0.90047403  0.86852019    -0.03800
C1664       C  0.64540585  0.88406643  0.89831858    -0.08300
C1665       C  0.63646702  0.89029301  0.93756405     0.05200
C1666       C  0.60486339  0.91433378  0.94644145    -0.03300
Br1667     Br  0.58803200  0.92665734  0.99780090    -0.03000
H1668       H  0.55817887  0.94743838  0.92513973     0.09100
H1669       H  0.66998516  0.86650408  0.89067799     0.07200
Br1670     Br  0.64168737  0.89051317  0.81666971    -0.03400
C1671       C  0.59507920  0.12641724  0.94027771    -0.10100
C1672       C  0.63478652  0.13308296  0.93274714     0.06100
C1673       C  0.65085473  0.12213955  0.89690937    -0.03800
C1674       C  0.62742494  0.10422963  0.86955093    -0.08300
C1675       C  0.58768722  0.09661364  0.87728315     0.05200
C1676       C  0.57160512  0.10816395  0.91322971    -0.03300
Br1677     Br  0.51735657  0.10220721  0.92639152    -0.03000
H1678       H  0.58208552  0.13593353  0.96717634     0.09100
H1679       H  0.64046175  0.09589784  0.84222910     0.07200
Br1680     Br  0.70448953  0.13216598  0.88377678    -0.03400
loop_ 
_geom_bond_atom_site_label_1 
_geom_bond_atom_site_label_2 
_geom_bond_distance 
_geom_bond_site_symmetry_2 
_ccdc_geom_bond_type 
O1           C12   1.293       .  A
O1          Eu37   2.469       .  S
O2           C13   1.289       .  A
O2          Eu36   2.456       .  S
O3           C14   1.292       .  A
O3           Eu9   2.465       .  S
O4           C15   1.289       .  A
O4           Eu9   2.461       .  S
O5           C15   1.298       .  A
O5          Eu39   2.499       .  S
O6           C14   1.294   1_565  A
O6          Eu38   2.470       .  S
O7           C13   1.294       .  A
O7           Eu9   2.468       .  S
O8           C12   1.296       .  A
O8           Eu9   2.483       .  S
Eu9          O19   2.354       .  S
Eu9          O11   2.351       .  S
Eu9          O10   2.350       .  S
Eu9          O17   2.365       .  S
O10         Eu39   2.346       .  S
O10         Eu36   2.362       .  S
O11         Eu37   2.353       .  S
O11         Eu38   2.345   1_545  S
C12        C1675   1.495       .  S
C13        C1595   1.497       .  S
C14        C1572   1.493       .  S
C15        C1622   1.506       .  S
H16          O17   0.966       .  S
O17         Eu38   2.361   1_545  S
O17         Eu36   2.345       .  S
H18          O19   0.966       .  S
O19         Eu37   2.361       .  S
O19         Eu39   2.367       .  S
O20          C43   1.292       .  A
O20         Eu36   2.467   1_565  S
O21          C44   1.298       .  A
O21         Eu37   2.497   1_565  S
O22          C45   1.290       .  A
O22         Eu38   2.451       .  S
O23          C46   1.289       .  A
O23         Eu39   2.447       .  S
O24          C47   1.287       .  A
O24         Eu39   2.437       .  S
O25          C48   1.287       .  A
O25         Eu38   2.450       .  S
O26          C49   1.290       .  A
O26         Eu40   2.457       .  S
O27          C50   1.291   1_565  A
O27         Eu40   2.469       .  S
O28          C49   1.293       .  A
O28         Eu38   2.459       .  S
O29          C50   1.297       .  A
O29         Eu39   2.490       .  S
O30          C45   1.293       .  A
O30         Eu36   2.475   1_565  S
O31          C48   1.300       .  A
O31         Eu37   2.500   1_565  S
O32          C47   1.290       .  A
O32         Eu37   2.449       .  S
O33          C46   1.288       .  A
O33         Eu36   2.447       .  S
O34          C43   1.289       .  A
O34         Eu40   2.451       .  S
O35          C44   1.288       .  A
O35         Eu40   2.454       .  S
Eu36         O54   2.339       .  S
Eu36         O42   2.349   1_545  S
Eu37         O41   2.356       .  S
Eu37         O52   2.343   1_545  S
Eu38         O52   2.374       .  S
Eu38         O42   2.349       .  S
Eu39         O41   2.351       .  S
Eu39         O54   2.361       .  S
Eu40         O41   2.338   1_565  S
Eu40         O52   2.368       .  S
Eu40         O54   2.352   1_565  S
Eu40         O42   2.354       .  S
C43        C1612   1.474       .  S
C44        C1652   1.508       .  S
C45        C1605   1.490       .  S
C46        C1582   1.456       .  S
C47        C1642   1.454       .  S
C48        C1662   1.507       .  S
C49        C1632   1.484       .  S
C50        C1565   1.502       .  S
H51          O52   0.966       .  S
H53          O54   0.966       .  S
C55          C56   1.541       .  S
C55          C61   1.527       .  S
C55          C59   1.542       .  S
C55        C1535   1.533       .  S
C56          H63   1.080       .  S
C56          C57   1.364       .  D
C57          C58   1.544       .  S
C57        C1592   1.483       .  S
C58          C62   1.535       .  S
C58          C60   1.534       .  S
C58          H64   1.109       .  S
C59          H65   1.086       .  S
C59          C60   1.366       .  D
C60        C1542   1.479       .  S
C61          H66   1.087       .  S
C61          C62   1.361       .  D
C62        C1552   1.476       .  S
O67          C78   1.292       .  A
O67        Eu103   2.469       .  S
O68          C79   1.291       .  A
O68        Eu102   2.464       .  S
O69          C80   1.294       .  A
O69         Eu75   2.475       .  S
O70          C81   1.292       .  A
O70         Eu75   2.466       .  S
O71          C81   1.289       .  A
O71        Eu105   2.438       .  S
O72          C80   1.293   1_565  A
O72        Eu104   2.472       .  S
O73          C79   1.293       .  A
O73         Eu75   2.458       .  S
O74          C78   1.293       .  A
O74         Eu75   2.470       .  S
Eu75         O85   2.344       .  S
Eu75         O77   2.343       .  S
Eu75         O76   2.362       .  S
Eu75         O83   2.355       .  S
O76        Eu105   2.353       .  S
O76        Eu102   2.343       .  S
O77        Eu103   2.341       .  S
O77        Eu104   2.351   1_545  S
C78        C1545   1.485       .  S
C79        C1492   1.495       .  S
C80        C1432   1.500       .  S
C81        C1472   1.486       .  S
H82          O83   0.966       .  S
O83        Eu104   2.356   1_545  S
O83        Eu102   2.374       .  S
H84          O85   0.965       .  S
O85        Eu103   2.354       .  S
O85        Eu105   2.359       .  S
O86         C109   1.288       .  A
O86        Eu102   2.448   1_565  S
O87         C110   1.289       .  A
O87        Eu103   2.450   1_565  S
O88         C111   1.289       .  A
O88        Eu104   2.445       .  S
O89         C112   1.292       .  A
O89        Eu105   2.471       .  S
O90         C113   1.287       .  A
O90        Eu105   2.447       .  S
O91         C114   1.291       .  A
O91        Eu104   2.450       .  S
O92         C115   1.288       .  A
O92        Eu106   2.452       .  S
O93         C116   1.287   1_565  A
O93        Eu106   2.440       .  S
O94         C115   1.295       .  A
O94        Eu104   2.480       .  S
O95         C116   1.292       .  A
O95        Eu105   2.464       .  S
O96         C111   1.290       .  A
O96        Eu102   2.456   1_565  S
O97         C114   1.290       .  A
O97        Eu103   2.460   1_565  S
O98         C113   1.297       .  A
O98        Eu103   2.481       .  S
O99         C112   1.295       .  A
O99        Eu102   2.487       .  S
O100        C109   1.292       .  A
O100       Eu106   2.458       .  S
O101        C110   1.292       .  A
O101       Eu106   2.464       .  S
Eu102       O120   2.363       .  S
Eu102       O108   2.348   1_545  S
Eu103       O107   2.352       .  S
Eu103       O118   2.372   1_545  S
Eu104       O118   2.344       .  S
Eu104       O108   2.342       .  S
Eu105       O107   2.351       .  S
Eu105       O120   2.342       .  S
Eu106       O107   2.355   1_565  S
Eu106       O118   2.343       .  S
Eu106       O120   2.355   1_565  S
Eu106       O108   2.342       .  S
C109       C1512   1.485       .  S
C110       C1442   1.464       .  S
C111       C1502   1.457       .  S
C112       C1522   1.485       .  S
C113       C1465   1.499       .  S
C114       C1455   1.492       .  S
C115       C1482   1.498       .  S
C116       C1422   1.471       .  S
H117        O118   0.965       .  S
H119        O120   0.966       .  S
C121        C122   1.534   1_554  S
C121        C127   1.520       .  S
C121        C125   1.539       .  S
C121       C1402   1.533   1_554  S
C122        H129   1.086       .  S
C122        C123   1.373       .  D
C123        C124   1.553   1_556  S
C123       C1655   1.510       .  S
C124        C128   1.557       .  S
C124        C126   1.552       .  S
C124        H130   1.105       .  S
C125        H131   1.081       .  S
C125        C126   1.362       .  D
C126       C1515   1.473       .  S
C127        H132   1.087       .  S
C127        C128   1.362       .  D
C128       C1415   1.501       .  S
C133        C134   1.548       .  S
C133        C139   1.530       .  S
C133        C137   1.549   1_554  S
C133       C1382   1.542       .  S
C134        H141   1.081       .  S
C134        C135   1.363       .  D
C135        C136   1.531       .  S
C135       C1505   1.475       .  S
C136        C140   1.527       .  S
C136        C138   1.542   1_554  S
C136        H142   1.109       .  S
C137        H143   1.085       .  S
C137        C138   1.375       .  D
C138       C1665   1.504       .  S
C139        H144   1.087       .  S
C139        C140   1.361       .  D
C140       C1392   1.467       .  S
C145        C146   1.544       .  S
C145        C151   1.541       .  S
C145        C149   1.550       .  S
C145       C1365   1.554       .  S
C146        H153   1.085       .  S
C146        C147   1.373       .  D
C147        C148   1.534       .  S
C147       C1452   1.489       .  S
C148        C152   1.534       .  S
C148        C150   1.540       .  S
C148        H154   1.111       .  S
C149        H155   1.084       .  S
C149        C150   1.367       .  D
C150       C1602   1.485       .  S
C151        H156   1.084       .  S
C151        C152   1.365       .  D
C152       C1372   1.485       .  S
C157        C158   1.557       .  S
C157        C163   1.534   1_554  S
C157        C161   1.542   1_554  S
C157       C1342   1.551       .  S
C158        H165   1.077       .  S
C158        C159   1.370       .  D
C159        C160   1.543       .  S
C159       C1525   1.509       .  S
C160        C164   1.540   1_554  S
C160        C162   1.531   1_554  S
C160        H166   1.110   1_554  S
C161        H167   1.086       .  S
C161        C162   1.369       .  D
C162       C1645   1.475       .  S
C163        H168   1.086       .  S
C163        C164   1.363       .  D
C164       C1355   1.483       .  S
C169        C170   1.555       .  S
C169        C175   1.527       .  S
C169        C173   1.530   1_556  S
C169       C1322   1.531   1_556  S
C170        H177   1.081       .  S
C170        C171   1.366       .  D
C171        C172   1.538       .  S
C171       C1672   1.488       .  S
C172        C176   1.549       .  S
C172        C174   1.549   1_556  S
C172        H178   1.110       .  S
C173        H179   1.086       .  S
C173        C174   1.365       .  D
C174       C1495   1.485       .  S
C175        H180   1.087       .  S
C175        C176   1.360       .  D
C176       C1335   1.489       .  S
C181        C182   1.547       .  S
C181        C187   1.534       .  S
C181        C185   1.548       .  S
C181       C1305   1.543       .  S
C182        H189   1.086       .  S
C182        C183   1.374       .  D
C183        C184   1.540       .  S
C183       C1462   1.496       .  S
C184        C188   1.537       .  S
C184        C186   1.534       .  S
C184        H190   1.110       .  S
C185        H191   1.078       .  S
C185        C186   1.360       .  D
C186       C1585   1.475       .  S
C187        H192   1.087       .  S
C187        C188   1.362       .  D
C188       C1312   1.482       .  S
C193        C194   1.547       .  S
C193        C199   1.526       .  S
C193        C197   1.526       .  S
C193       C1285   1.523       .  S
C194        H201   1.081       .  S
C194        C195   1.366       .  D
C195        C196   1.536       .  S
C195       C1615   1.479       .  S
C196        C200   1.556       .  S
C196        C198   1.554       .  S
C196        H202   1.110       .  S
C197        H203   1.084       .  S
C197        C198   1.362       .  D
C198       C1445   1.497       .  S
C199        H204   1.087       .  S
C199        C200   1.356       .  D
C200       C1292   1.483       .  S
O205        C216   1.296       .  A
O205       Eu241   2.489       .  S
O206        C217   1.288   1_455  A
O206       Eu240   2.437       .  S
O207        C218   1.291       .  A
O207       Eu213   2.459       .  S
O208        C219   1.294       .  A
O208       Eu213   2.465       .  S
O209        C219   1.289       .  A
O209       Eu243   2.455       .  S
O210        C218   1.289       .  A
O210       Eu242   2.442       .  S
O211        C217   1.289       .  A
O211       Eu213   2.449       .  S
O212        C216   1.294       .  A
O212       Eu213   2.482       .  S
Eu213       O223   2.347       .  S
Eu213       O215   2.351       .  S
Eu213       O214   2.353       .  S
Eu213       O221   2.346       .  S
O214       Eu243   2.342       .  S
O214       Eu240   2.347   1_655  S
O215       Eu241   2.345       .  S
O215       Eu242   2.359       .  S
C216       C1362   1.497       .  S
C217       C1185   1.478       .  S
C218       C1252   1.456       .  S
C219       C1235   1.494       .  S
H220        O221   0.964       .  S
O221       Eu242   2.368       .  S
O221       Eu240   2.344   1_655  S
H222        O223   0.965       .  S
O223       Eu241   2.348       .  S
O223       Eu243   2.380       .  S
O224        C247   1.288       .  A
O224       Eu240   2.445       .  S
O225        C248   1.289       .  A
O225       Eu241   2.447       .  S
O226        C249   1.297       .  A
O226       Eu242   2.482   1_455  S
O227        C250   1.292       .  A
O227       Eu243   2.460   1_455  S
O228        C251   1.288       .  A
O228       Eu243   2.444       .  S
O229        C252   1.300       .  A
O229       Eu242   2.498       .  S
O230        C253   1.288       .  A
O230       Eu244   2.452       .  S
O231        C254   1.288       .  A
O231       Eu244   2.450       .  S
O232        C253   1.297       .  A
O232       Eu242   2.483   1_455  S
O233        C254   1.294       .  A
O233       Eu243   2.480   1_455  S
O234        C249   1.292       .  A
O234       Eu240   2.468       .  S
O235        C252   1.289       .  A
O235       Eu241   2.458       .  S
O236        C251   1.293       .  A
O236       Eu241   2.459       .  S
O237        C250   1.292       .  A
O237       Eu240   2.469       .  S
O238        C247   1.286       .  A
O238       Eu244   2.427       .  S
O239        C248   1.284   1_455  A
O239       Eu244   2.414       .  S
Eu240       O258   2.345       .  S
Eu240       O246   2.366       .  S
Eu241       O245   2.362       .  S
Eu241       O256   2.350       .  S
Eu242       O256   2.340       .  S
Eu242       O246   2.356   1_655  S
Eu243       O245   2.343       .  S
Eu243       O258   2.353   1_655  S
Eu244       O245   2.350   1_455  S
Eu244       O256   2.338   1_455  S
Eu244       O258   2.338       .  S
Eu244       O246   2.351       .  S
C247       C1282   1.457       .  S
C248       C1192   1.446       .  S
C249       C1242   1.501       .  S
C250       C1202   1.487       .  S
C251       C1222   1.476       .  S
C252       C1262   1.506       .  S
C253       C1272   1.499       .  S
C254       C1212   1.472       .  S
H255        O256   0.965       .  S
H257        O258   0.966       .  S
O259        C270   1.289       .  A
O259       Eu295   2.451       .  S
O260        C271   1.292   1_455  A
O260       Eu294   2.474       .  S
O261        C272   1.291       .  A
O261       Eu267   2.458       .  S
O262        C273   1.290       .  A
O262       Eu267   2.457       .  S
O263        C273   1.292       .  A
O263       Eu297   2.466       .  S
O264        C272   1.293       .  A
O264       Eu296   2.473       .  S
O265        C271   1.288       .  A
O265       Eu267   2.431       .  S
O266        C270   1.292       .  A
O266       Eu267   2.460       .  S
Eu267       O277   2.354       .  S
Eu267       O269   2.345       .  S
Eu267       O268   2.349       .  S
Eu267       O275   2.360       .  S
O268       Eu297   2.345       .  S
O268       Eu294   2.350   1_655  S
O269       Eu295   2.352       .  S
O269       Eu296   2.361       .  S
C270       C1532   1.487       .  S
C271       C1082   1.484       .  S
C272       C1105   1.472       .  S
C273       C1162   1.471       .  S
H274        O275   0.965       .  S
O275       Eu296   2.333       .  S
O275       Eu294   2.347   1_655  S
H276        O277   0.965       .  S
O277       Eu295   2.363       .  S
O277       Eu297   2.346       .  S
O278        C301   1.293       .  A
O278       Eu294   2.467       .  S
O279        C302   1.289       .  A
O279       Eu295   2.459       .  S
O280        C303   1.292       .  A
O280       Eu296   2.467   1_455  S
O281        C304   1.294       .  A
O281       Eu297   2.479   1_455  S
O282        C305   1.289       .  A
O282       Eu297   2.446       .  S
O283        C306   1.289       .  A
O283       Eu296   2.455       .  S
O284        C307   1.289       .  A
O284       Eu298   2.438       .  S
O285        C308   1.293       .  A
O285       Eu298   2.462       .  S
O286        C307   1.292       .  A
O286       Eu296   2.465   1_455  S
O287        C308   1.287       .  A
O287       Eu297   2.442   1_455  S
O288        C303   1.287       .  A
O288       Eu294   2.432       .  S
O289        C306   1.292       .  A
O289       Eu295   2.458       .  S
O290        C305   1.292       .  A
O290       Eu295   2.464       .  S
O291        C304   1.284       .  A
O291       Eu294   2.420       .  S
O292        C301   1.293       .  A
O292       Eu298   2.468       .  S
O293        C302   1.296   1_455  A
O293       Eu298   2.481       .  S
Eu294       O312   2.354       .  S
Eu294       O300   2.352       .  S
Eu295       O299   2.337       .  S
Eu295       O310   2.349       .  S
Eu296       O310   2.348       .  S
Eu296       O300   2.358   1_655  S
Eu297       O299   2.357       .  S
Eu297       O312   2.332   1_655  S
Eu298       O299   2.332   1_455  S
Eu298       O310   2.354   1_455  S
Eu298       O312   2.360       .  S
Eu298       O300   2.359       .  S
C301       C1302   1.487       .  S
C302       C1092   1.498       .  S
C303       C1132   1.472       .  S
C304       C1172   1.462       .  S
C305       C1152   1.465       .  S
C306       C1115   1.492       .  S
C307       C1122   1.483       .  S
C308       C1142   1.486       .  S
H309        O310   0.966       .  S
H311        O312   0.966       .  S
C313        C314   1.541       .  S
C313        C319   1.534       .  S
C313        C317   1.536       .  S
C313       C1062   1.531       .  S
C314        H321   1.086       .  S
C314        C315   1.368       .  D
C315        C316   1.532       .  S
C315       C1112   1.483       .  S
C316        C320   1.550       .  S
C316        C318   1.542       .  S
C316        H322   1.106       .  S
C317        H323   1.081       .  S
C317        C318   1.358       .  D
C318       C1225   1.471       .  S
C319        H324   1.086       .  S
C319        C320   1.367       .  D
C320       C1072   1.501       .  S
C325        C326   1.556       .  S
C325        C331   1.530       .  S
C325        C329   1.545       .  S
C325       C1042   1.543       .  S
C326        H333   1.079       .  S
C326        C327   1.367       .  D
C327        C328   1.531       .  S
C327       C1215   1.486       .  S
C328        C332   1.528       .  S
C328        C330   1.529       .  S
C328        H334   1.112       .  S
C329        H335   1.086       .  S
C329        C330   1.368       .  D
C330       C1125   1.471       .  S
C331        H336   1.087       .  S
C331        C332   1.361       .  D
C332       C1052   1.463       .  S
C337        C338   1.555   1_545  S
C337        C343   1.530       .  S
C337        C341   1.542       .  S
C337       C1435   1.542       .  S
C338        H345   1.080       .  S
C338        C339   1.368       .  D
C339        C340   1.528   1_565  S
C339       C1255   1.477       .  S
C340        C344   1.534       .  S
C340        C342   1.541       .  S
C340        H346   1.111       .  S
C341        H347   1.085       .  S
C341        C342   1.371       .  D
C342       C1165   1.491       .  S
C343        H348   1.087       .  S
C343        C344   1.357       .  D
C344       C1032   1.470       .  S
C349        C350   1.538       .  S
C349        C355   1.525   1_545  S
C349        C353   1.552   1_545  S
C349       C1575   1.544       .  S
C350        H357   1.079       .  S
C350        C351   1.359       .  D
C351        C352   1.557       .  S
C351       C1155   1.495       .  S
C352        C356   1.559   1_545  S
C352        C354   1.541   1_545  S
C352        H358   1.104   1_545  S
C353        H359   1.086       .  S
C353        C354   1.377       .  D
C354       C1265   1.506       .  S
C355        H360   1.087       .  S
C355        C356   1.362       .  D
C356       C1022   1.503       .  S
C361        C362   1.548       .  S
C361        C367   1.547       .  S
C361        C365   1.545       .  S
C361       C1005   1.553       .  S
C362        H369   1.085       .  S
C362        C363   1.370       .  D
C363        C364   1.531       .  S
C363       C1232   1.478       .  S
C364        C368   1.531       .  S
C364        C366   1.533       .  S
C364        H370   1.112       .  S
C365        H371   1.086       .  S
C365        C366   1.371       .  D
C366       C1102   1.485       .  S
C367        H372   1.082       .  S
C367        C368   1.362       .  D
C368       C1012   1.479       .  S
C373        C374   1.541       .  S
C373        C379   1.521       .  S
C373        C377   1.533       .  S
C373        C982   1.529       .  S
C374        H381   1.082       .  S
C374        C375   1.364       .  D
C375        C376   1.546       .  S
C375       C1135   1.475       .  S
C376        C380   1.543       .  S
C376        C378   1.553       .  S
C376        H382   1.104       .  S
C377        H383   1.085       .  S
C377        C378   1.375       .  D
C378       C1205   1.507       .  S
C379        H384   1.088       .  S
C379        C380   1.354       .  D
C380        C992   1.483       .  S
C385        C386   1.548       .  S
C385        C391   1.526       .  S
C385        C389   1.533   1_545  S
C385       C1425   1.525       .  S
C386        H393   1.081       .  S
C386        C387   1.367       .  D
C387        C388   1.541       .  S
C387       C1175   1.481       .  S
C388        C392   1.550       .  S
C388        C390   1.548   1_545  S
C388        H394   1.110       .  S
C389        H395   1.087       .  S
C389        C390   1.365       .  D
C390       C1245   1.496       .  S
C391        H396   1.087       .  S
C391        C392   1.354       .  D
C392        C972   1.479       .  S
C397        C398   1.557   1_545  S
C397        C403   1.530       .  S
C397        C401   1.541       .  S
C397       C1562   1.549       .  S
C398        H405   1.080       .  S
C398        C399   1.383       .  D
C399        C400   1.548   1_565  S
C399       C1275   1.521       .  S
C400        C404   1.534       .  S
C400        C402   1.540       .  S
C400        H406   1.101       .  S
C401        H407   1.086       .  S
C401        C402   1.366       .  D
C402       C1145   1.477       .  S
C403        H408   1.087       .  S
C403        C404   1.355       .  D
C404        C962   1.478       .  S
O409        C420   1.294   1_556  A
O409       Eu445   2.475       .  S
O410        C421   1.291       .  A
O410       Eu444   2.466       .  S
O411        C422   1.294       .  A
O411       Eu417   2.463       .  S
O412        C423   1.294       .  A
O412       Eu417   2.464       .  S
O413        C423   1.285       .  A
O413       Eu447   2.436   1_554  S
O414        C422   1.290       .  A
O414       Eu446   2.455   1_554  S
O415        C421   1.293       .  A
O415       Eu417   2.478       .  S
O416        C420   1.289       .  A
O416       Eu417   2.453       .  S
Eu417       O427   2.351       .  S
Eu417       O419   2.356   1_554  S
Eu417       O418   2.335       .  S
Eu417       O425   2.347       .  S
O418       Eu447   2.358   1_554  S
O418       Eu444   2.350       .  S
O419       Eu445   2.341       .  S
O419       Eu446   2.345       .  S
C420       C1385   1.497       .  S
C421       C1002   1.483       .  S
C422        C895   1.484       .  S
C423        C955   1.486       .  S
H424        O425   0.966       .  S
O425       Eu446   2.379   1_554  S
O425       Eu444   2.347       .  S
H426        O427   0.966       .  S
O427       Eu445   2.357   1_554  S
O427       Eu447   2.364   1_554  S
O428        C451   1.290       .  A
O428       Eu444   2.454       .  S
O429        C452   1.293       .  A
O429       Eu445   2.469       .  S
O430        C453   1.290       .  A
O430       Eu446   2.452   1_554  S
O431        C454   1.290       .  A
O431       Eu447   2.459   1_554  S
O432        C455   1.299       .  A
O432       Eu447   2.499       .  S
O433        C456   1.291       .  A
O433       Eu446   2.465       .  S
O434        C457   1.289       .  A
O434       Eu448   2.461       .  S
O435        C458   1.294       .  A
O435       Eu448   2.480       .  S
O436        C457   1.298       .  A
O436       Eu446   2.494       .  S
O437        C458   1.293       .  A
O437       Eu447   2.472       .  S
O438        C453   1.294       .  A
O438       Eu444   2.476       .  S
O439        C456   1.290       .  A
O439       Eu445   2.456       .  S
O440        C455   1.284       .  A
O440       Eu445   2.431       .  S
O441        C454   1.293       .  A
O441       Eu444   2.458       .  S
O442        C451   1.289   1_556  A
O442       Eu448   2.449       .  S
O443        C452   1.286       .  A
O443       Eu448   2.418       .  S
Eu444       O462   2.356       .  S
Eu444       O450   2.353   1_554  S
Eu445       O449   2.359       .  S
Eu445       O460   2.350       .  S
Eu446       O460   2.353       .  S
Eu446       O450   2.351       .  S
Eu447       O449   2.336       .  S
Eu447       O462   2.367   1_556  S
Eu448       O449   2.357       .  S
Eu448       O460   2.355       .  S
Eu448       O462   2.329   1_556  S
Eu448       O450   2.350       .  S
C451       C1325   1.473       .  S
C452       C1065   1.474       .  S
C453        C882   1.472       .  S
C454        C925   1.488       .  S
C455        C942   1.498       .  S
C456        C902   1.468       .  S
C457        C912   1.509       .  S
C458        C935   1.485       .  S
H459        O460   0.964       .  S
H461        O462   0.965       .  S
O463        C474   1.289       .  A
O463       Eu499   2.450       .  S
O464        C475   1.288       .  A
O464       Eu498   2.448       .  S
O465        C476   1.295       .  A
O465       Eu471   2.473       .  S
O466        C477   1.295       .  A
O466       Eu471   2.467       .  S
O467        C477   1.292       .  A
O467       Eu501   2.473   1_554  S
O468        C476   1.293       .  A
O468       Eu500   2.475   1_554  S
O469        C475   1.294       .  A
O469       Eu471   2.466       .  S
O470        C474   1.293   1_554  A
O470       Eu471   2.468       .  S
Eu471       O481   2.370   1_554  S
Eu471       O473   2.343   1_554  S
Eu471       O472   2.353       .  S
Eu471       O479   2.363       .  S
O472       Eu501   2.362   1_554  S
O472       Eu498   2.355       .  S
O473       Eu499   2.350       .  S
O473       Eu500   2.355       .  S
C474       C1405   1.471       .  S
C475        C985   1.487       .  S
C476        C825   1.504       .  S
C477        C862   1.503       .  S
H478        O479   0.965       .  S
O479       Eu500   2.328   1_554  S
O479       Eu498   2.363       .  S
H480        O481   0.967       .  S
O481       Eu499   2.353       .  S
O481       Eu501   2.341       .  S
O482        C505   1.290   1_554  A
O482       Eu498   2.457       .  S
O483        C506   1.287       .  A
O483       Eu499   2.443       .  S
O484        C507   1.296       .  A
O484       Eu500   2.488   1_554  S
O485        C508   1.290       .  A
O485       Eu501   2.456   1_554  S
O486        C509   1.296       .  A
O486       Eu501   2.485       .  S
O487        C510   1.290       .  A
O487       Eu500   2.461       .  S
O488        C511   1.292       .  A
O488       Eu502   2.450       .  S
O489        C512   1.287       .  A
O489       Eu502   2.437       .  S
O490        C511   1.284       .  A
O490       Eu500   2.429       .  S
O491        C512   1.291       .  A
O491       Eu501   2.459       .  S
O492        C507   1.295       .  A
O492       Eu498   2.480       .  S
O493        C510   1.286       .  A
O493       Eu499   2.437       .  S
O494        C509   1.286       .  A
O494       Eu499   2.444       .  S
O495        C508   1.294       .  A
O495       Eu498   2.477       .  S
O496        C505   1.299       .  A
O496       Eu502   2.500       .  S
O497        C506   1.298       .  A
O497       Eu502   2.496       .  S
Eu498       O516   2.355   1_554  S
Eu498       O504   2.349   1_554  S
Eu499       O503   2.337       .  S
Eu499       O514   2.356       .  S
Eu500       O514   2.347       .  S
Eu500       O504   2.363       .  S
Eu501       O503   2.349       .  S
Eu501       O516   2.344       .  S
Eu502       O503   2.350       .  S
Eu502       O514   2.359       .  S
Eu502       O516   2.360       .  S
Eu502       O504   2.351       .  S
C505       C1345   1.499   1_556  S
C506       C1045   1.493       .  S
C507        C812   1.498       .  S
C508        C875   1.477       .  S
C509        C852   1.498       .  S
C510        C835   1.457       .  S
C511        C805   1.479       .  S
C512        C845   1.458       .  S
H513        O514   0.966       .  S
H515        O516   0.966       .  S
C517        C518   1.529       .  S
C517        C523   1.536       .  S
C517        C521   1.539   1_455  S
C517       C1195   1.518       .  S
C518        H525   1.086       .  S
C518        C519   1.362       .  D
C519        C520   1.541       .  S
C519        C832   1.471       .  S
C520        C524   1.538       .  S
C520        C522   1.544   1_455  S
C520        H526   1.110       .  S
C521        H527   1.086       .  S
C521        C522   1.370       .  D
C522        C945   1.492       .  S
C523        H528   1.084       .  S
C523        C524   1.351       .  D
C524        C795   1.475       .  S
C529        C530   1.555       .  S
C529        C535   1.536       .  S
C529        C533   1.542   1_655  S
C529       C1095   1.550       .  S
C530        H537   1.080       .  S
C530        C531   1.367       .  D
C531        C532   1.539       .  S
C531        C932   1.494       .  S
C532        C536   1.535       .  S
C532        C534   1.538   1_655  S
C532        H538   1.111       .  S
C533        H539   1.085       .  S
C533        C534   1.369       .  D
C534        C802   1.482       .  S
C535        H540   1.086       .  S
C535        C536   1.365       .  D
C536        C782   1.479   1_655  S
C541        C542   1.546       .  S
C541        C547   1.526       .  S
C541        C545   1.536       .  S
C541       C1635   1.531       .  S
C542        H549   1.081       .  S
C542        C543   1.371       .  D
C543        C544   1.543       .  S
C543        C855   1.492       .  S
C544        C548   1.548       .  S
C544        C546   1.543       .  S
C544        H550   1.109       .  S
C545        H551   1.086       .  S
C545        C546   1.364       .  D
C546        C905   1.483       .  S
C547        H552   1.087       .  S
C547        C548   1.357       .  D
C548        C772   1.486       .  S
C553        C554   1.541       .  S
C553        C559   1.535       .  S
C553        C557   1.554       .  S
C553       C1485   1.546       .  S
C554        H561   1.086       .  S
C554        C555   1.364       .  D
C555        C556   1.536       .  S
C555        C892   1.474       .  S
C556        C560   1.537       .  S
C556        C558   1.541       .  S
C556        H562   1.111       .  S
C557        H563   1.081       .  S
C557        C558   1.370       .  D
C558        C865   1.496       .  S
C559        H564   1.087       .  S
C559        C560   1.365       .  D
C560        C762   1.482       .  S
C565        C566   1.551   1_655  S
C565        C571   1.520       .  S
C565        C569   1.539       .  S
C565       C1085   1.534       .  S
C566        H573   1.082       .  S
C566        C567   1.371       .  D
C567        C568   1.547   1_455  S
C567        C815   1.494       .  S
C568        C572   1.541       .  S
C568        C570   1.546       .  S
C568        H574   1.110       .  S
C569        H575   1.085       .  S
C569        C570   1.372       .  D
C570        C922   1.488       .  S
C571        H576   1.088       .  S
C571        C572   1.351       .  D
C572        C755   1.480       .  S
C577        C578   1.546       .  S
C577        C583   1.527       .  S
C577        C581   1.542   1_655  S
C577       C1182   1.530       .  S
C578        H585   1.082       .  S
C578        C579   1.356       .  D
C579        C580   1.531       .  S
C579        C952   1.469       .  S
C580        C584   1.537       .  S
C580        C582   1.553   1_655  S
C580        H586   1.109       .  S
C581        H587   1.084       .  S
C581        C582   1.378       .  D
C582        C822   1.507       .  S
C583        H588   1.086       .  S
C583        C584   1.355       .  D
C584        C745   1.480       .  S
C589        C590   1.563       .  S
C589        C595   1.532       .  S
C589        C593   1.536       .  S
C589       C1625   1.551       .  S
C590        H597   1.081       .  S
C590        C591   1.378       .  D
C591        C592   1.538       .  S
C591        C915   1.505       .  S
C592        C596   1.534       .  S
C592        C594   1.536       .  S
C592        H598   1.110       .  S
C593        H599   1.086       .  S
C593        C594   1.363       .  D
C594        C842   1.474       .  S
C595        H600   1.087       .  S
C595        C596   1.364       .  D
C596        C732   1.478       .  S
C601        C602   1.549       .  S
C601        C607   1.521       .  S
C601        C605   1.539       .  S
C601       C1475   1.540       .  S
C602        H609   1.086       .  S
C602        C603   1.371       .  D
C603        C604   1.535       .  S
C603        C872   1.488       .  S
C604        C608   1.563       .  S
C604        C606   1.559       .  S
C604        H610   1.109       .  S
C605        H611   1.077       .  S
C605        C606   1.365       .  D
C606        C885   1.510       .  S
C607        H612   1.087       .  S
C607        C608   1.359       .  D
C608        C722   1.500       .  S
O613        C624   1.296       .  A
O613       Eu649   2.491       .  S
O614        C625   1.296       .  A
O614       Eu648   2.492       .  S
O615        C626   1.300       .  A
O615       Eu621   2.514       .  S
O616        C627   1.295       .  A
O616       Eu621   2.489       .  S
O617        C627   1.288       .  A
O617       Eu651   2.440       .  S
O618        C626   1.282       .  A
O618       Eu650   2.393       .  S
O619        C625   1.288       .  A
O619       Eu621   2.442       .  S
O620        C624   1.283       .  A
O620       Eu621   2.399       .  S
Eu621       O631   2.359       .  S
Eu621       O623   2.348       .  S
Eu621       O622   2.366       .  S
Eu621       O629   2.327       .  S
O622       Eu651   2.372       .  S
O622       Eu648   2.372       .  S
O623       Eu649   2.336       .  S
O623       Eu650   2.353       .  S
C624       C1555   1.471       .  S
C625        C735   1.472       .  S
C626       C1075   1.481       .  S
C627       C1315   1.472       .  S
H628        O629   0.964       .  S
O629       Eu650   2.337       .  S
O629       Eu648   2.344       .  S
H630        O631   0.963       .  S
O631       Eu649   2.347       .  S
O631       Eu651   2.328       .  S
O632        C655   1.300       .  A
O632       Eu648   2.518       .  S
O633        C656   1.292       .  A
O633       Eu649   2.471       .  S
O634        C657   1.299       .  A
O634       Eu650   2.515       .  S
O635        C658   1.291       .  A
O635       Eu651   2.465       .  S
O636        C659   1.300       .  A
O636       Eu651   2.521       .  S
O637        C660   1.294       .  A
O637       Eu650   2.483       .  S
O638        C661   1.294       .  A
O638       Eu652   2.484       .  S
O639        C662   1.296       .  A
O639       Eu652   2.502       .  S
O640        C661   1.287       .  A
O640       Eu650   2.431       .  S
O641        C662   1.282       .  A
O641       Eu651   2.393       .  S
O642        C657   1.285       .  A
O642       Eu648   2.410       .  S
O643        C660   1.289       .  A
O643       Eu649   2.436       .  S
O644        C659   1.285       .  A
O644       Eu649   2.413       .  S
O645        C658   1.288       .  A
O645       Eu648   2.427       .  S
O646        C655   1.282       .  A
O646       Eu652   2.392       .  S
O647        C656   1.288       .  A
O647       Eu652   2.439       .  S
Eu648       O666   2.337       .  S
Eu648       O654   2.344       .  S
Eu649       O653   2.344       .  S
Eu649       O664   2.367       .  S
Eu650       O664   2.366       .  S
Eu650       O654   2.337       .  S
Eu651       O653   2.341       .  S
Eu651       O666   2.355       .  S
Eu652       O653   2.334       .  S
Eu652       O664   2.365       .  S
Eu652       O666   2.339       .  S
Eu652       O654   2.354       .  S
C655       C1295   1.497       .  S
C656        C765   1.465       .  S
C657        C775   1.485       .  S
C658       C1055   1.465       .  S
C659        C725   1.494       .  S
C660       C1015   1.479       .  S
C661       C1375   1.470       .  S
C662        C995   1.466       .  S
H663        O664   0.966       .  S
H665        O666   0.964       .  S
O667        C678   1.301       .  A
O667       Eu703   2.528       .  S
O668        C679   1.296       .  A
O668       Eu702   2.490   1_455  S
O669        C680   1.304       .  A
O669       Eu675   2.532       .  S
O670        C681   1.299       .  A
O670       Eu675   2.516   1_545  S
O671        C681   1.285   1_554  A
O671       Eu705   2.411       .  S
O672        C680   1.278   1_655  A
O672       Eu704   2.394       .  S
O673        C679   1.285   1_565  A
O673       Eu675   2.422       .  S
O674        C678   1.280   1_556  A
O674       Eu675   2.388       .  S
Eu675       O685   2.351   1_566  S
Eu675       O677   2.348   1_556  S
Eu675       O676   2.366   1_565  S
Eu675       O683   2.337   1_455  S
O676       Eu705   2.366   1_556  S
O676       Eu702   2.367   1_455  S
O677       Eu703   2.333       .  S
O677       Eu704   2.351   1_454  S
C678       C1412   1.476       .  S
C679        C965   1.464       .  S
C680        C792   1.495       .  S
C681       C1352   1.485       .  S
H682        O683   0.965       .  S
O683       Eu704   2.348       .  S
O683       Eu702   2.355   1_565  S
H684        O685   0.964   1_565  S
O685       Eu703   2.340   1_545  S
O685       Eu705   2.334       .  S
O686        C709   1.298       .  A
O686       Eu702   2.509       .  S
O687        C710   1.296       .  A
O687       Eu703   2.501   1_655  S
O688        C711   1.299       .  A
O688       Eu704   2.517       .  S
O689        C712   1.294       .  A
O689       Eu705   2.481   1_556  S
O690        C713   1.303       .  A
O690       Eu705   2.532       .  S
O691        C714   1.296       .  A
O691       Eu704   2.501   1_554  S
O692        C715   1.291       .  A
O692       Eu706   2.467   1_565  S
O693        C716   1.302       .  A
O693       Eu706   2.533       .  S
O694        C715   1.287       .  A
O694       Eu704   2.430   1_554  S
O695        C716   1.278   1_455  A
O695       Eu705   2.382       .  S
O696        C711   1.285   1_545  A
O696       Eu702   2.408       .  S
O697        C714   1.281       .  A
O697       Eu703   2.399   1_655  S
O698        C713   1.276   1_565  A
O698       Eu703   2.382       .  S
O699        C712   1.288   1_655  A
O699       Eu702   2.436       .  S
O700        C709   1.282   1_554  A
O700       Eu706   2.395       .  S
O701        C710   1.282   1_545  A
O701       Eu706   2.396       .  S
Eu702       O720   2.347   1_556  S
Eu702       O708   2.337       .  S
Eu703       O707   2.354   1_465  S
Eu703       O718   2.360   1_455  S
Eu704       O718   2.355   1_556  S
Eu704       O708   2.340   1_565  S
Eu705       O707   2.338   1_455  S
Eu705       O720   2.355   1_455  S
Eu706       O707   2.339       .  S
Eu706       O718   2.368   1_545  S
Eu706       O720   2.325       .  S
Eu706       O708   2.352   1_554  S
C709       C1332   1.482       .  S
C710       C1035   1.475       .  S
C711       C1025   1.487       .  S
C712        C785   1.462       .  S
C713        C975   1.492       .  S
C714        C742   1.465       .  S
C715       C1395   1.460       .  S
C716        C752   1.483       .  S
H717        O718   0.965       .  S
H719        O720   0.966       .  S
C721        C722   1.419       .  A
C721        C726   1.411       .  A
C721        H728   1.083       .  S
C722        C723   1.403       .  A
C723        C724   1.394       .  A
C723       Br730   1.907       .  S
C724        C725   1.410       .  A
C724        H729   1.083       .  S
C725        C726   1.408       .  A
C726       Br727   1.918       .  S
C731        C732   1.402       .  A
C731        C736   1.397       .  A
C731        H738   1.084       .  S
C732        C733   1.407       .  A
C733        C734   1.404       .  A
C733       Br740   1.920       .  S
C734        C735   1.408       .  A
C734        H739   1.084       .  S
C735        C736   1.404       .  A
C736       Br737   1.916       .  S
C741        C742   1.398       .  A
C741        C746   1.399       .  A
C741        H748   1.084       .  S
C742        C743   1.408       .  A
C743        C744   1.394       .  A
C743       Br750   1.907   1_655  S
C744        C745   1.397       .  A
C744        H749   1.084   1_655  S
C745        C746   1.419       .  A
C746       Br747   1.921       .  S
C751        C752   1.407       .  A
C751        C756   1.410       .  A
C751        H758   1.083       .  S
C752        C753   1.417   1_655  A
C753        C754   1.388       .  A
C753       Br760   1.923       .  S
C754        C755   1.397   1_455  A
C754        H759   1.085       .  S
C755        C756   1.411       .  A
C756       Br757   1.915       .  S
C761        C762   1.406       .  A
C761        C766   1.396       .  A
C761        H768   1.081       .  S
C762        C763   1.409       .  A
C763        C764   1.401       .  A
C763       Br770   1.916       .  S
C764        C765   1.403       .  A
C764        H769   1.084       .  S
C765        C766   1.400       .  A
C766       Br767   1.916       .  S
C771        C772   1.413       .  A
C771        C776   1.404       .  A
C771        H778   1.083       .  S
C772        C773   1.404       .  A
C773        C774   1.395       .  A
C773       Br780   1.918       .  S
C774        C775   1.412       .  A
C774        H779   1.083       .  S
C775        C776   1.406       .  A
C776       Br777   1.918       .  S
C781        C782   1.400   1_655  A
C781        C786   1.399       .  A
C781        H788   1.084       .  S
C782        C783   1.413       .  A
C783        C784   1.394       .  A
C783       Br790   1.909       .  S
C784        C785   1.394       .  A
C784        H789   1.084       .  S
C785        C786   1.410   1_455  A
C786       Br787   1.917       .  S
C791        C792   1.404       .  A
C791        C796   1.403       .  A
C791        H798   1.083       .  S
C792        C793   1.432   1_455  A
C793        C794   1.394       .  A
C793       Br800   1.925       .  S
C794        C795   1.388   1_655  A
C794        H799   1.085       .  S
C795        C796   1.412       .  A
C796       Br797   1.919       .  S
C801        C802   1.402       .  A
C801        C806   1.396       .  A
C801        H808   1.083       .  S
C802        C803   1.411       .  A
C803        C804   1.390       .  A
C803       Br810   1.908       .  S
C804        C805   1.401       .  A
C804        H809   1.084       .  S
C805        C806   1.417       .  A
C806       Br807   1.925       .  S
C811        C812   1.411       .  A
C811        C816   1.409       .  A
C811        H818   1.083       .  S
C812        C813   1.415       .  A
C813        C814   1.407       .  A
C813       Br820   1.920       .  S
C814        C815   1.405       .  A
C814        H819   1.084       .  S
C815        C816   1.407       .  A
C816       Br817   1.918       .  S
C821        C822   1.407       .  A
C821        C826   1.403       .  A
C821        H828   1.077       .  S
C822        C823   1.414       .  A
C823        C824   1.402       .  A
C823       Br830   1.916       .  S
C824        C825   1.410       .  A
C824        H829   1.083       .  S
C825        C826   1.418       .  A
C826       Br827   1.923       .  S
C831        C832   1.401       .  A
C831        C836   1.391       .  A
C831        H838   1.084       .  S
C832        C833   1.414       .  A
C833        C834   1.395       .  A
C833       Br840   1.921       .  S
C834        C835   1.399       .  A
C834        H839   1.084       .  S
C835        C836   1.404       .  A
C836       Br837   1.917       .  S
C841        C842   1.402       .  A
C841        C846   1.395       .  A
C841        H848   1.084       .  S
C842        C843   1.413       .  A
C843        C844   1.397       .  A
C843       Br850   1.921       .  S
C844        C845   1.398       .  A
C844        H849   1.084       .  S
C845        C846   1.405       .  A
C846       Br847   1.921       .  S
C851        C852   1.406       .  A
C851        C856   1.402       .  A
C851        H858   1.083       .  S
C852        C853   1.422       .  A
C853        C854   1.398       .  A
C853       Br860   1.924       .  S
C854        C855   1.401       .  A
C854        H859   1.084       .  S
C855        C856   1.412       .  A
C856       Br857   1.911       .  S
C861        C862   1.411       .  A
C861        C866   1.402       .  A
C861        H868   1.083       .  S
C862        C863   1.421       .  A
C863        C864   1.404       .  A
C863       Br870   1.924       .  S
C864        C865   1.402       .  A
C864        H869   1.080       .  S
C865        C866   1.410       .  A
C866       Br867   1.920       .  S
C871        C872   1.406       .  A
C871        C876   1.404       .  A
C871        H878   1.084       .  S
C872        C873   1.411       .  A
C873        C874   1.401       .  A
C873       Br880   1.917       .  S
C874        C875   1.402       .  A
C874        H879   1.084       .  S
C875        C876   1.408       .  A
C876       Br877   1.920       .  S
C881        C882   1.393       .  A
C881        C886   1.397       .  A
C881        H888   1.084       .  S
C882        C883   1.407       .  A
C883        C884   1.405       .  A
C883       Br890   1.918       .  S
C884        C885   1.407       .  A
C884        H889   1.075       .  S
C885        C886   1.428       .  A
C886       Br887   1.925       .  S
C891        C892   1.398       .  A
C891        C896   1.399       .  A
C891        H898   1.082       .  S
C892        C893   1.405       .  A
C893        C894   1.396       .  A
C893       Br900   1.912       .  S
C894        C895   1.406       .  A
C894        H899   1.083       .  S
C895        C896   1.417       .  A
C896       Br897   1.921       .  S
C901        C902   1.400       .  A
C901        C906   1.401       .  A
C901        H908   1.084       .  S
C902        C903   1.406       .  A
C903        C904   1.396       .  A
C903       Br910   1.918       .  S
C904        C905   1.402       .  A
C904        H909   1.083       .  S
C905        C906   1.418       .  A
C906       Br907   1.923       .  S
C911        C912   1.407       .  A
C911        C916   1.404       .  A
C911        H918   1.083       .  S
C912        C913   1.425       .  A
C913        C914   1.405       .  A
C913       Br920   1.923       .  S
C914        C915   1.402       .  A
C914        H919   1.083       .  S
C915        C916   1.418       .  A
C916       Br917   1.914       .  S
C921        C922   1.403       .  A
C921        C926   1.397       .  A
C921        H928   1.083       .  S
C922        C923   1.413       .  A
C923        C924   1.397       .  A
C923       Br930   1.917       .  S
C924        C925   1.407       .  A
C924        H929   1.083       .  S
C925        C926   1.417       .  A
C926       Br927   1.924       .  S
C931        C932   1.406       .  A
C931        C936   1.410       .  A
C931        H938   1.083       .  S
C932        C933   1.412       .  A
C933        C934   1.402       .  A
C933       Br940   1.919       .  S
C934        C935   1.401       .  A
C934        H939   1.083       .  S
C935        C936   1.413       .  A
C936       Br937   1.922       .  S
C941        C942   1.406       .  A
C941        C946   1.399       .  A
C941        H948   1.083       .  S
C942        C943   1.424       .  A
C943        C944   1.400       .  A
C943       Br950   1.927       .  S
C944        C945   1.402       .  A
C944        H949   1.084       .  S
C945        C946   1.413       .  A
C946       Br947   1.914       .  S
C951        C952   1.396       .  A
C951        C956   1.397       .  A
C951        H958   1.080       .  S
C952        C953   1.403       .  A
C953        C954   1.390       .  A
C953       Br960   1.912       .  S
C954        C955   1.407       .  A
C954        H959   1.083       .  S
C955        C956   1.422       .  A
C956       Br957   1.923       .  S
C961        C962   1.405       .  A
C961        C966   1.397       .  A
C961        H968   1.082       .  S
C962        C963   1.406   1_545  A
C963        C964   1.400       .  A
C963       Br970   1.919       .  S
C964        C965   1.405   1_565  A
C964        H969   1.084       .  S
C965        C966   1.402       .  A
C966       Br967   1.920       .  S
C971        C972   1.385       .  A
C971        C976   1.389       .  A
C971        H978   1.085   1_545  S
C972        C973   1.416       .  A
C973        C974   1.407       .  A
C973       Br980   1.919       .  S
C974        C975   1.404       .  A
C974        H979   1.083       .  S
C975        C976   1.430       .  A
C976       Br977   1.919   1_545  S
C981        C982   1.409       .  A
C981        C986   1.398       .  A
C981        H988   1.075       .  S
C982        C983   1.419       .  A
C983        C984   1.392       .  A
C983       Br990   1.927       .  S
C984        C985   1.403       .  A
C984        H989   1.083       .  S
C985        C986   1.418       .  A
C986       Br987   1.927       .  S
C991        C992   1.407       .  A
C991        C996   1.409       .  A
C991        H998   1.083       .  S
C992        C993   1.411       .  A
C993        C994   1.385       .  A
C993      Br1000   1.923       .  S
C994        C995   1.398       .  A
C994        H999   1.085       .  S
C995        C996   1.411       .  A
C996       Br997   1.919       .  S
C1001      C1002   1.401       .  A
C1001      C1006   1.405       .  A
C1001      H1008   1.084       .  S
C1002      C1003   1.402       .  A
C1003      C1004   1.404       .  A
C1003     Br1010   1.919       .  S
C1004      C1005   1.420       .  A
C1004      H1009   1.076       .  S
C1005      C1006   1.423       .  A
C1006     Br1007   1.919       .  S
C1011      C1012   1.405       .  A
C1011      C1016   1.405       .  A
C1011      H1018   1.081       .  S
C1012      C1013   1.403       .  A
C1013      C1014   1.394       .  A
C1013     Br1020   1.916       .  S
C1014      C1015   1.406       .  A
C1014      H1019   1.084       .  S
C1015      C1016   1.409       .  A
C1016     Br1017   1.918       .  S
C1021      C1022   1.420       .  A
C1021      C1026   1.409       .  A
C1021      H1028   1.083       .  S
C1022      C1023   1.407   1_565  A
C1023      C1024   1.392   1_545  A
C1023     Br1030   1.907       .  S
C1024      C1025   1.408       .  A
C1024      H1029   1.084   1_565  S
C1025      C1026   1.405       .  A
C1026     Br1027   1.918       .  S
C1031      C1032   1.408   1_565  A
C1031      C1036   1.406       .  A
C1031      H1038   1.083       .  S
C1032      C1033   1.398       .  A
C1033      C1034   1.389       .  A
C1033     Br1040   1.918       .  S
C1034      C1035   1.407   1_545  A
C1034      H1039   1.084       .  S
C1035      C1036   1.410       .  A
C1036     Br1037   1.917       .  S
C1041      C1042   1.408       .  A
C1041      C1046   1.396       .  A
C1041      H1048   1.073       .  S
C1042      C1043   1.423       .  A
C1043      C1044   1.404       .  A
C1043     Br1050   1.921       .  S
C1044      C1045   1.403       .  A
C1044      H1049   1.083       .  S
C1045      C1046   1.418       .  A
C1046     Br1047   1.925       .  S
C1051      C1052   1.404       .  A
C1051      C1056   1.400       .  A
C1051      H1058   1.081       .  S
C1052      C1053   1.401       .  A
C1053      C1054   1.388       .  A
C1053     Br1060   1.918       .  S
C1054      C1055   1.404       .  A
C1054      H1059   1.084       .  S
C1055      C1056   1.407       .  A
C1056     Br1057   1.919       .  S
C1061      C1062   1.415       .  A
C1061      C1066   1.398       .  A
C1061      H1068   1.075       .  S
C1062      C1063   1.417       .  A
C1063      C1064   1.389       .  A
C1063     Br1070   1.920       .  S
C1064      C1065   1.400       .  A
C1064      H1069   1.083       .  S
C1065      C1066   1.407       .  A
C1066     Br1067   1.921       .  S
C1071      C1072   1.418       .  A
C1071      C1076   1.405       .  A
C1071      H1078   1.082       .  S
C1072      C1073   1.412       .  A
C1073      C1074   1.394       .  A
C1073     Br1080   1.918       .  S
C1074      C1075   1.407       .  A
C1074      H1079   1.084       .  S
C1075      C1076   1.403       .  A
C1076     Br1077   1.916       .  S
C1081      C1082   1.401       .  A
C1081      C1086   1.393       .  A
C1081      H1088   1.084       .  S
C1082      C1083   1.413   1_655  A
C1083      C1084   1.401       .  A
C1083     Br1090   1.922       .  S
C1084      C1085   1.410   1_455  A
C1084      H1089   1.076       .  S
C1085      C1086   1.423       .  A
C1086     Br1087   1.924       .  S
C1091      C1092   1.400   1_455  A
C1091      C1096   1.399       .  A
C1091      H1098   1.084       .  S
C1092      C1093   1.417       .  A
C1093      C1094   1.403       .  A
C1093     Br1100   1.919       .  S
C1094      C1095   1.412       .  A
C1094      H1099   1.074       .  S
C1095      C1096   1.423   1_655  A
C1096     Br1097   1.907       .  S
C1101      C1102   1.402       .  A
C1101      C1106   1.398       .  A
C1101      H1108   1.079       .  S
C1102      C1103   1.412       .  A
C1103      C1104   1.405       .  A
C1103     Br1110   1.918       .  S
C1104      C1105   1.404       .  A
C1104      H1109   1.083       .  S
C1105      C1106   1.404       .  A
C1106     Br1107   1.920       .  S
C1111      C1112   1.402       .  A
C1111      C1116   1.397       .  A
C1111      H1118   1.080       .  S
C1112      C1113   1.405       .  A
C1113      C1114   1.396       .  A
C1113     Br1120   1.915       .  S
C1114      C1115   1.409       .  A
C1114      H1119   1.081       .  S
C1115      C1116   1.419       .  A
C1116     Br1117   1.924       .  S
C1121      C1122   1.408       .  A
C1121      C1126   1.393       .  A
C1121      H1128   1.083       .  S
C1122      C1123   1.415       .  A
C1123      C1124   1.400       .  A
C1123     Br1130   1.922       .  S
C1124      C1125   1.402       .  A
C1124      H1129   1.084       .  S
C1125      C1126   1.403       .  A
C1126     Br1127   1.916       .  S
C1131      C1132   1.406       .  A
C1131      C1136   1.398       .  A
C1131      H1138   1.084       .  S
C1132      C1133   1.407       .  A
C1133      C1134   1.397       .  A
C1133     Br1140   1.920       .  S
C1134      C1135   1.404       .  A
C1134      H1139   1.084       .  S
C1135      C1136   1.404       .  A
C1136     Br1137   1.915       .  S
C1141      C1142   1.407       .  A
C1141      C1146   1.398       .  A
C1141      H1148   1.083       .  S
C1142      C1143   1.418       .  A
C1143      C1144   1.398       .  A
C1143     Br1150   1.922       .  S
C1144      C1145   1.397       .  A
C1144      H1149   1.084       .  S
C1145      C1146   1.404       .  A
C1146     Br1147   1.912       .  S
C1151      C1152   1.393       .  A
C1151      C1156   1.394       .  A
C1151      H1158   1.084       .  S
C1152      C1153   1.407       .  A
C1153      C1154   1.404       .  A
C1153     Br1160   1.921       .  S
C1154      C1155   1.405       .  A
C1154      H1159   1.074       .  S
C1155      C1156   1.420       .  A
C1156     Br1157   1.921       .  S
C1161      C1162   1.397       .  A
C1161      C1166   1.398       .  A
C1161      H1168   1.084       .  S
C1162      C1163   1.407       .  A
C1163      C1164   1.403       .  A
C1163     Br1170   1.915       .  S
C1164      C1165   1.406       .  A
C1164      H1169   1.082       .  S
C1165      C1166   1.416       .  A
C1166     Br1167   1.916       .  S
C1171      C1172   1.398       .  A
C1171      C1176   1.394       .  A
C1171      H1178   1.082       .  S
C1172      C1173   1.402       .  A
C1173      C1174   1.398       .  A
C1173     Br1180   1.916       .  S
C1174      C1175   1.408       .  A
C1174      H1179   1.083       .  S
C1175      C1176   1.410       .  A
C1176     Br1177   1.916       .  S
C1181      C1182   1.411       .  A
C1181      C1186   1.390       .  A
C1181      H1188   1.075       .  S
C1182      C1183   1.419   1_655  A
C1183      C1184   1.397       .  A
C1183     Br1190   1.917       .  S
C1184      C1185   1.402   1_455  A
C1184      H1189   1.082       .  S
C1185      C1186   1.409       .  A
C1186     Br1187   1.918       .  S
C1191      C1192   1.398       .  A
C1191      C1196   1.395       .  A
C1191      H1198   1.084       .  S
C1192      C1193   1.398   1_655  A
C1193      C1194   1.383       .  A
C1193     Br1200   1.921       .  S
C1194      C1195   1.411       .  A
C1194      H1199   1.078       .  S
C1195      C1196   1.417   1_455  A
C1196     Br1197   1.922       .  S
C1201      C1202   1.403       .  A
C1201      C1206   1.401       .  A
C1201      H1208   1.084       .  S
C1202      C1203   1.408       .  A
C1203      C1204   1.398       .  A
C1203     Br1210   1.919       .  S
C1204      C1205   1.413       .  A
C1204      H1209   1.082       .  S
C1205      C1206   1.421       .  A
C1206     Br1207   1.917       .  S
C1211      C1212   1.400       .  A
C1211      C1216   1.400       .  A
C1211      H1218   1.084       .  S
C1212      C1213   1.408       .  A
C1213      C1214   1.401       .  A
C1213     Br1220   1.919       .  S
C1214      C1215   1.404       .  A
C1214      H1219   1.082       .  S
C1215      C1216   1.413       .  A
C1216     Br1217   1.920       .  S
C1221      C1222   1.405       .  A
C1221      C1226   1.392       .  A
C1221      H1228   1.083       .  S
C1222      C1223   1.414       .  A
C1223      C1224   1.399       .  A
C1223     Br1230   1.924       .  S
C1224      C1225   1.404       .  A
C1224      H1229   1.082       .  S
C1225      C1226   1.401       .  A
C1226     Br1227   1.916       .  S
C1231      C1232   1.401       .  A
C1231      C1236   1.401       .  A
C1231      H1238   1.083       .  S
C1232      C1233   1.403       .  A
C1233      C1234   1.398       .  A
C1233     Br1240   1.918       .  S
C1234      C1235   1.411       .  A
C1234      H1239   1.083       .  S
C1235      C1236   1.421       .  A
C1236     Br1237   1.925       .  S
C1241      C1242   1.407       .  A
C1241      C1246   1.401       .  A
C1241      H1248   1.083       .  S
C1242      C1243   1.421       .  A
C1243      C1244   1.403       .  A
C1243     Br1250   1.921       .  S
C1244      C1245   1.403       .  A
C1244      H1249   1.084       .  S
C1245      C1246   1.412       .  A
C1246     Br1247   1.909   1_565  S
C1251      C1252   1.395       .  A
C1251      C1256   1.392       .  A
C1251      H1258   1.084       .  S
C1252      C1253   1.406       .  A
C1253      C1254   1.398       .  A
C1253     Br1260   1.921       .  S
C1254      C1255   1.406       .  A
C1254      H1259   1.083       .  S
C1255      C1256   1.411       .  A
C1256     Br1257   1.914       .  S
C1261      C1262   1.405       .  A
C1261      C1266   1.401       .  A
C1261      H1268   1.083       .  S
C1262      C1263   1.424       .  A
C1263      C1264   1.408       .  A
C1263     Br1270   1.924       .  S
C1264      C1265   1.406       .  A
C1264      H1269   1.084       .  S
C1265      C1266   1.417       .  A
C1266     Br1267   1.914       .  S
C1271      C1272   1.402       .  A
C1271      C1276   1.401       .  A
C1271      H1278   1.084       .  S
C1272      C1273   1.417       .  A
C1273      C1274   1.404       .  A
C1273     Br1280   1.924       .  S
C1274      C1275   1.413       .  A
C1274      H1279   1.082       .  S
C1275      C1276   1.427       .  A
C1276     Br1277   1.916       .  S
C1281      C1282   1.397       .  A
C1281      C1286   1.389       .  A
C1281      H1288   1.085       .  S
C1282      C1283   1.401       .  A
C1283      C1284   1.395       .  A
C1283     Br1290   1.921       .  S
C1284      C1285   1.417       .  A
C1284      H1289   1.083       .  S
C1285      C1286   1.418       .  A
C1286     Br1287   1.921       .  S
C1291      C1292   1.411       .  A
C1291      C1296   1.408       .  A
C1291      H1298   1.084       .  S
C1292      C1293   1.400       .  A
C1293      C1294   1.391       .  A
C1293     Br1300   1.914       .  S
C1294      C1295   1.415       .  A
C1294      H1299   1.083       .  S
C1295      C1296   1.412       .  A
C1296     Br1297   1.919       .  S
C1301      C1302   1.403       .  A
C1301      C1306   1.404       .  A
C1301      H1308   1.083       .  S
C1302      C1303   1.411       .  A
C1303      C1304   1.395       .  A
C1303     Br1310   1.918       .  S
C1304      C1305   1.412       .  A
C1304      H1309   1.073       .  S
C1305      C1306   1.421       .  A
C1306     Br1307   1.921       .  S
C1311      C1312   1.401       .  A
C1311      C1316   1.401       .  A
C1311      H1318   1.084       .  S
C1312      C1313   1.413       .  A
C1313      C1314   1.401       .  A
C1313     Br1320   1.919       .  S
C1314      C1315   1.399       .  A
C1314      H1319   1.084       .  S
C1315      C1316   1.411       .  A
C1316     Br1317   1.921       .  S
C1321      C1322   1.405   1_556  A
C1321      C1326   1.392       .  A
C1321      H1328   1.075       .  S
C1322      C1323   1.426       .  A
C1323      C1324   1.398       .  A
C1323     Br1330   1.924       .  S
C1324      C1325   1.397       .  A
C1324      H1329   1.084       .  S
C1325      C1326   1.407   1_554  A
C1326     Br1327   1.910       .  S
C1331      C1332   1.410       .  A
C1331      C1336   1.392   1_556  A
C1331      H1338   1.083   1_556  S
C1332      C1333   1.404       .  A
C1333      C1334   1.403       .  A
C1333     Br1340   1.918       .  S
C1334      C1335   1.415       .  A
C1334      H1339   1.083       .  S
C1335      C1336   1.406   1_556  A
C1336     Br1337   1.920       .  S
C1341      C1342   1.410       .  A
C1341      C1346   1.399       .  A
C1341      H1348   1.073       .  S
C1342      C1343   1.425   1_554  A
C1343      C1344   1.407       .  A
C1343     Br1350   1.922       .  S
C1344      C1345   1.404   1_556  A
C1344      H1349   1.083       .  S
C1345      C1346   1.417       .  A
C1346     Br1347   1.923       .  S
C1351      C1352   1.408   1_554  A
C1351      C1356   1.392       .  A
C1351      H1358   1.084       .  S
C1352      C1353   1.410       .  A
C1353      C1354   1.412       .  A
C1353     Br1360   1.918       .  S
C1354      C1355   1.411       .  A
C1354      H1359   1.082       .  S
C1355      C1356   1.401   1_556  A
C1356     Br1357   1.919       .  S
C1361      C1362   1.402       .  A
C1361      C1366   1.409       .  A
C1361      H1368   1.084       .  S
C1362      C1363   1.410       .  A
C1363      C1364   1.405       .  A
C1363     Br1370   1.915       .  S
C1364      C1365   1.413       .  A
C1364      H1369   1.080       .  S
C1365      C1366   1.428       .  A
C1366     Br1367   1.924       .  S
C1371      C1372   1.407       .  A
C1371      C1376   1.400       .  A
C1371      H1378   1.084       .  S
C1372      C1373   1.407       .  A
C1373      C1374   1.400       .  A
C1373     Br1380   1.910       .  S
C1374      C1375   1.403       .  A
C1374      H1379   1.084       .  S
C1375      C1376   1.403       .  A
C1376     Br1377   1.911       .  S
C1381      C1382   1.411       .  A
C1381      C1386   1.396       .  A
C1381      H1388   1.078       .  S
C1382      C1383   1.420   1_554  A
C1383      C1384   1.405       .  A
C1383     Br1390   1.922       .  S
C1384      C1385   1.408   1_556  A
C1384      H1389   1.083       .  S
C1385      C1386   1.417       .  A
C1386     Br1387   1.927       .  S
C1391      C1392   1.394   1_556  A
C1391      C1396   1.391       .  A
C1391      H1398   1.084       .  S
C1392      C1393   1.412       .  A
C1393      C1394   1.400       .  A
C1393     Br1400   1.920       .  S
C1394      C1395   1.400       .  A
C1394      H1399   1.084       .  S
C1395      C1396   1.409   1_554  A
C1396     Br1397   1.918       .  S
C1401      C1402   1.407   1_554  A
C1401      C1406   1.393       .  A
C1401      H1408   1.075       .  S
C1402      C1403   1.426       .  A
C1403      C1404   1.400       .  A
C1403     Br1410   1.924       .  S
C1404      C1405   1.397       .  A
C1404      H1409   1.084       .  S
C1405      C1406   1.405   1_556  A
C1406     Br1407   1.913       .  S
C1411      C1412   1.407       .  A
C1411      C1416   1.412       .  A
C1411      H1418   1.084       .  S
C1412      C1413   1.408       .  A
C1413      C1414   1.387       .  A
C1413     Br1420   1.917   1_554  S
C1414      C1415   1.406       .  A
C1414      H1419   1.082   1_554  S
C1415      C1416   1.415       .  A
C1416     Br1417   1.912       .  S
C1421      C1422   1.399   1_565  A
C1421      C1426   1.399       .  A
C1421      H1428   1.084       .  S
C1422      C1423   1.405       .  A
C1423      C1424   1.390       .  A
C1423     Br1430   1.908       .  S
C1424      C1425   1.404       .  A
C1424      H1429   1.076       .  S
C1425      C1426   1.423   1_545  A
C1426     Br1427   1.926       .  S
C1431      C1432   1.406       .  A
C1431      C1436   1.405       .  A
C1431      H1438   1.083       .  S
C1432      C1433   1.415   1_545  A
C1433      C1434   1.397       .  A
C1433     Br1440   1.910       .  S
C1434      C1435   1.407   1_565  A
C1434      H1439   1.074       .  S
C1435      C1436   1.422       .  A
C1436     Br1437   1.923       .  S
C1441      C1442   1.392       .  A
C1441      C1446   1.396       .  A
C1441      H1448   1.084       .  S
C1442      C1443   1.405       .  A
C1443      C1444   1.399       .  A
C1443     Br1450   1.916       .  S
C1444      C1445   1.405       .  A
C1444      H1449   1.079       .  S
C1445      C1446   1.427       .  A
C1446     Br1447   1.924       .  S
C1451      C1452   1.405       .  A
C1451      C1456   1.397       .  A
C1451      H1458   1.077       .  S
C1452      C1453   1.407       .  A
C1453      C1454   1.396       .  A
C1453     Br1460   1.919       .  S
C1454      C1455   1.410       .  A
C1454      H1459   1.082       .  S
C1455      C1456   1.417       .  A
C1456     Br1457   1.927       .  S
C1461      C1462   1.403       .  A
C1461      C1466   1.406       .  A
C1461      H1468   1.084       .  S
C1462      C1463   1.414       .  A
C1463      C1464   1.394       .  A
C1463     Br1470   1.908       .  S
C1464      C1465   1.402       .  A
C1464      H1469   1.083       .  S
C1465      C1466   1.423       .  A
C1466     Br1467   1.923       .  S
C1471      C1472   1.404       .  A
C1471      C1476   1.396       .  A
C1471      H1478   1.083       .  S
C1472      C1473   1.412       .  A
C1473      C1474   1.400       .  A
C1473     Br1480   1.926       .  S
C1474      C1475   1.415       .  A
C1474      H1479   1.074       .  S
C1475      C1476   1.419       .  A
C1476     Br1477   1.926       .  S
C1481      C1482   1.403       .  A
C1481      C1486   1.402       .  A
C1481      H1488   1.083       .  S
C1482      C1483   1.418       .  A
C1483      C1484   1.402       .  A
C1483     Br1490   1.922       .  S
C1484      C1485   1.410       .  A
C1484      H1489   1.075       .  S
C1485      C1486   1.423       .  A
C1486     Br1487   1.921       .  S
C1491      C1492   1.410       .  A
C1491      C1496   1.397       .  A
C1491      H1498   1.083       .  S
C1492      C1493   1.420       .  A
C1493      C1494   1.400       .  A
C1493     Br1500   1.923       .  S
C1494      C1495   1.400       .  A
C1494      H1499   1.081       .  S
C1495      C1496   1.409       .  A
C1496     Br1497   1.919       .  S
C1501      C1502   1.400       .  A
C1501      C1506   1.398       .  A
C1501      H1508   1.084       .  S
C1502      C1503   1.403       .  A
C1503      C1504   1.392       .  A
C1503     Br1510   1.921       .  S
C1504      C1505   1.403       .  A
C1504      H1509   1.083       .  S
C1505      C1506   1.413       .  A
C1506     Br1507   1.923       .  S
C1511      C1512   1.409       .  A
C1511      C1516   1.396       .  A
C1511      H1518   1.083       .  S
C1512      C1513   1.418       .  A
C1513      C1514   1.398       .  A
C1513     Br1520   1.925       .  S
C1514      C1515   1.399       .  A
C1514      H1519   1.084       .  S
C1515      C1516   1.402       .  A
C1516     Br1517   1.917       .  S
C1521      C1522   1.399       .  A
C1521      C1526   1.404       .  A
C1521      H1528   1.084       .  S
C1522      C1523   1.409       .  A
C1523      C1524   1.408       .  A
C1523     Br1530   1.919       .  S
C1524      C1525   1.410       .  A
C1524      H1529   1.083       .  S
C1525      C1526   1.424       .  A
C1526     Br1527   1.923       .  S
C1531      C1532   1.404       .  A
C1531      C1536   1.396       .  A
C1531      H1538   1.083       .  S
C1532      C1533   1.415       .  A
C1533      C1534   1.396       .  A
C1533     Br1540   1.926       .  S
C1534      C1535   1.410       .  A
C1534      H1539   1.074       .  S
C1535      C1536   1.420       .  A
C1536     Br1537   1.927       .  S
C1541      C1542   1.400       .  A
C1541      C1546   1.401       .  A
C1541      H1548   1.084       .  S
C1542      C1543   1.408       .  A
C1543      C1544   1.401       .  A
C1543     Br1550   1.916       .  S
C1544      C1545   1.406       .  A
C1544      H1549   1.084       .  S
C1545      C1546   1.414       .  A
C1546     Br1547   1.916       .  S
C1551      C1552   1.410       .  A
C1551      C1556   1.394       .  A
C1551      H1558   1.083       .  S
C1552      C1553   1.405       .  A
C1553      C1554   1.390       .  A
C1553     Br1560   1.921       .  S
C1554      C1555   1.410       .  A
C1554      H1559   1.084       .  S
C1555      C1556   1.402       .  A
C1556     Br1557   1.915       .  S
C1561      C1562   1.409   1_565  A
C1561      C1566   1.403       .  A
C1561      H1568   1.076       .  S
C1562      C1563   1.425       .  A
C1563      C1564   1.406       .  A
C1563     Br1570   1.924       .  S
C1564      C1565   1.404       .  A
C1564      H1569   1.083       .  S
C1565      C1566   1.419   1_545  A
C1566     Br1567   1.923       .  S
C1571      C1572   1.405   1_565  A
C1571      C1576   1.400       .  A
C1571      H1578   1.083       .  S
C1572      C1573   1.414       .  A
C1573      C1574   1.400       .  A
C1573     Br1580   1.927       .  S
C1574      C1575   1.415       .  A
C1574      H1579   1.073       .  S
C1575      C1576   1.419   1_545  A
C1576     Br1577   1.924       .  S
C1581      C1582   1.399       .  A
C1581      C1586   1.397       .  A
C1581      H1588   1.084       .  S
C1582      C1583   1.403       .  A
C1583      C1584   1.393       .  A
C1583     Br1590   1.918       .  S
C1584      C1585   1.402       .  A
C1584      H1589   1.083       .  S
C1585      C1586   1.416       .  A
C1586     Br1587   1.924       .  S
C1591      C1592   1.397       .  A
C1591      C1596   1.399       .  A
C1591      H1598   1.084       .  S
C1592      C1593   1.412       .  A
C1593      C1594   1.397       .  A
C1593     Br1600   1.924       .  S
C1594      C1595   1.410       .  A
C1594      H1599   1.083       .  S
C1595      C1596   1.423       .  A
C1596     Br1597   1.921       .  S
C1601      C1602   1.403       .  A
C1601      C1606   1.403       .  A
C1601      H1608   1.081       .  S
C1602      C1603   1.404       .  A
C1603      C1604   1.400       .  A
C1603     Br1610   1.917       .  S
C1604      C1605   1.410       .  A
C1604      H1609   1.083       .  S
C1605      C1606   1.415       .  A
C1606     Br1607   1.921       .  S
C1611      C1612   1.400       .  A
C1611      C1616   1.399       .  A
C1611      H1618   1.084       .  S
C1612      C1613   1.411       .  A
C1613      C1614   1.401       .  A
C1613     Br1620   1.919       .  S
C1614      C1615   1.400       .  A
C1614      H1619   1.084       .  S
C1615      C1616   1.411       .  A
C1616     Br1617   1.912       .  S
C1621      C1622   1.406       .  A
C1621      C1626   1.410       .  A
C1621      H1628   1.083       .  S
C1622      C1623   1.421       .  A
C1623      C1624   1.402       .  A
C1623     Br1630   1.924       .  S
C1624      C1625   1.406       .  A
C1624      H1629   1.076       .  S
C1625      C1626   1.428       .  A
C1626     Br1627   1.926       .  S
C1631      C1632   1.401       .  A
C1631      C1636   1.392       .  A
C1631      H1638   1.084       .  S
C1632      C1633   1.414       .  A
C1633      C1634   1.400       .  A
C1633     Br1640   1.923       .  S
C1634      C1635   1.410       .  A
C1634      H1639   1.076       .  S
C1635      C1636   1.421       .  A
C1636     Br1637   1.928       .  S
C1641      C1642   1.398       .  A
C1641      C1646   1.397       .  A
C1641      H1648   1.084       .  S
C1642      C1643   1.403       .  A
C1643      C1644   1.392       .  A
C1643     Br1650   1.921       .  S
C1644      C1645   1.404       .  A
C1644      H1649   1.082       .  S
C1645      C1646   1.412       .  A
C1646     Br1647   1.918       .  S
C1651      C1652   1.409       .  A
C1651      C1656   1.407       .  A
C1651      H1658   1.083       .  S
C1652      C1653   1.422       .  A
C1653      C1654   1.401       .  A
C1653     Br1660   1.924       .  S
C1654      C1655   1.405       .  A
C1654      H1659   1.084       .  S
C1655      C1656   1.418       .  A
C1656     Br1657   1.913   1_556  S
C1661      C1662   1.405       .  A
C1661      C1666   1.399       .  A
C1661      H1668   1.083       .  S
C1662      C1663   1.425       .  A
C1663      C1664   1.408       .  A
C1663     Br1670   1.924       .  S
C1664      C1665   1.406       .  A
C1664      H1669   1.084       .  S
C1665      C1666   1.416       .  A
C1666     Br1667   1.914       .  S
C1671      C1672   1.402       .  A
C1671      C1676   1.404       .  A
C1671      H1678   1.083       .  S
C1672      C1673   1.407       .  A
C1673      C1674   1.405       .  A
C1673     Br1680   1.917       .  S
C1674      C1675   1.409       .  A
C1674      H1679   1.083       .  S
C1675      C1676   1.417       .  A
C1676     Br1677   1.921       .  S
