geometry optimzed in LAMMPS
_audit_creation_date              2020-11-30 
_audit_creation_method            'lammps2cif' 
_symmetry_space_group_name_H-M    'P1' 
_symmetry_Int_Tables_number       1 
_symmetry_cell_setting            triclinic 
loop_ 
_symmetry_equiv_pos_as_xyz 
  x,y,z 
_cell_length_a                    40.23011418 
_cell_length_b                    40.120436929342176 
_cell_length_c                    28.49530691927941 
_cell_angle_alpha                 89.85064455211754 
_cell_angle_beta                  89.80879807769894 
_cell_angle_gamma                 89.42997388987901 
loop_ 
_atom_site_label 
_atom_site_type_symbol 
_atom_site_fract_x 
_atom_site_fract_y 
_atom_site_fract_z 
_atom_site_charge 
C1          C  0.57587360  0.91150164  0.49788525    -0.02200
C2          C  0.42443107  0.91700830  0.00594309    -0.02200
C3          C  0.42649509  0.06224011  0.51330070    -0.02200
C4          C  0.57888508  0.05890895  0.00626900    -0.02200
C5          C  0.92842917  0.56445659  0.98896426    -0.02200
C6          C  0.92042099  0.41486269  0.99820585    -0.02200
C7          C  0.07272247  0.41779463  0.00197814    -0.02200
C8          C  0.07786005  0.56722970  0.99333341    -0.02200
In9        In  0.62803402  0.80664915  0.24499645     1.36900
C10         C  0.57062803  0.77459674  0.24750804     0.77800
O11         O  0.59748189  0.84350777  0.28507522    -0.60600
O12         O  0.64468851  0.83201000  0.31294966    -0.51500
C13         C  0.68011699  0.76507534  0.25093126     0.70500
O14         O  0.65047538  0.75638013  0.25715007    -0.46400
C15         C  0.62671623  0.83752018  0.16169242     0.75200
O16         O  0.58904610  0.77684666  0.28312719    -0.58200
O17         O  0.63298817  0.85255434  0.19954753    -0.48300
O18         O  0.58309887  0.78631015  0.21055601    -0.54700
C19         C  0.61718275  0.84687195  0.31885453     0.85400
O20         O  0.68337024  0.79568489  0.24184259    -0.56600
O21         O  0.62425399  0.80644318  0.16632637    -0.59900
In22       In  0.37495943  0.81221170  0.25365514     1.36900
C23         C  0.43088772  0.77652315  0.25454455     0.77800
O24         O  0.35569590  0.84451769  0.19334545    -0.60600
O25         O  0.40638321  0.84660255  0.21217148    -0.51500
C26         C  0.32184281  0.77369920  0.24270551     0.70500
O27         O  0.34943944  0.76805037  0.22318383    -0.46400
C28         C  0.38076004  0.84482617  0.33407681     0.75200
O29         O  0.41425150  0.78249134  0.29104659    -0.58200
O30         O  0.37707171  0.85953579  0.29522380    -0.48300
O31         O  0.41675532  0.78550939  0.21710893    -0.54700
C32         C  0.38403702  0.85643106  0.18451703     0.85400
O33         O  0.32107694  0.79992301  0.26701984    -0.56600
O34         O  0.37725918  0.81368977  0.33232996    -0.59900
In35       In  0.83346331  0.34575748  0.24839643     1.36900
C36         C  0.82365948  0.41095506  0.24670920     0.77800
O37         O  0.83098025  0.35370893  0.32509426    -0.60600
O38         O  0.87765713  0.33859099  0.29721677    -0.51500
C39         C  0.78878170  0.29716741  0.24958863     0.70500
O40         O  0.78141725  0.32775346  0.24804035    -0.46400
C41         C  0.85794427  0.34997909  0.16241153     0.75200
O42         O  0.79971812  0.39106091  0.25195723    -0.58200
O43         O  0.87448843  0.33585396  0.19474572    -0.48300
O44         O  0.85190958  0.39724946  0.24414772    -0.54700
C45         C  0.86157283  0.34928325  0.33246481     0.85400
O46         O  0.81971736  0.29113738  0.25033383    -0.56600
O47         O  0.82808312  0.35632543  0.17266310    -0.59900
In48       In  0.83325091  0.61907346  0.24269154     1.36900
C49         C  0.82363704  0.55393335  0.24192963     0.77800
O50         O  0.83079289  0.60837704  0.16590468    -0.60600
O51         O  0.87462421  0.63011626  0.19269206    -0.51500
C52         C  0.78791760  0.66788660  0.24551088     0.70500
O53         O  0.78196356  0.63800174  0.25601050    -0.46400
C54         C  0.86776138  0.62115962  0.32135414     0.75200
O55         O  0.79937753  0.57417102  0.24157835    -0.58200
O56         O  0.88019779  0.62851340  0.28210080    -0.48300
O57         O  0.85168094  0.56721789  0.24508039    -0.54700
C58         C  0.86057983  0.61645476  0.15829181     0.85400
O59         O  0.81757660  0.67293613  0.23298378    -0.56600
O60         O  0.83685039  0.61648763  0.32115460    -0.59900
In61       In  0.36197872  0.15478910  0.26525602     1.36900
C62         C  0.42686065  0.16271260  0.27069583     0.77800
O63         O  0.36993330  0.15788453  0.34189301    -0.60600
O64         O  0.34923992  0.11290891  0.31598247    -0.51500
C65         C  0.31346492  0.20014127  0.26025747     0.70500
O66         O  0.34387662  0.20697825  0.26381522    -0.46400
C67         C  0.37018502  0.12722323  0.18182574     0.75200
O68         O  0.40733673  0.18763924  0.26940141    -0.58200
O69         O  0.36015483  0.11063871  0.21684419    -0.48300
O70         O  0.41276995  0.13500192  0.26786177    -0.54700
C71         C  0.36280722  0.12790850  0.34985348     0.85400
O72         O  0.30749224  0.16921116  0.25951923    -0.56600
O73         O  0.37136073  0.15826924  0.18811037    -0.59900
In74       In  0.63397096  0.15540430  0.25852170     1.36900
C75         C  0.56966986  0.16602952  0.27075528     0.77800
O76         O  0.61496746  0.15269871  0.18550229    -0.60600
O77         O  0.64714476  0.11353982  0.20803905    -0.51500
C78         C  0.68288864  0.19944729  0.25305211     0.70500
O79         O  0.65249697  0.20731933  0.25174720    -0.46400
C80         C  0.63350059  0.12654089  0.34160568     0.75200
O81         O  0.58901440  0.19016826  0.26304843    -0.58200
O82         O  0.63957507  0.11051953  0.30438560    -0.48300
O83         O  0.58368773  0.13789259  0.27129902    -0.54700
C84         C  0.62738230  0.12442085  0.17708005     0.85400
O85         O  0.68834295  0.16847579  0.25672935    -0.56600
O86         O  0.63344191  0.15781823  0.33709179    -0.59900
In87       In  0.17542855  0.36175887  0.24969817     1.36900
C88         C  0.20663771  0.41891727  0.23338217     0.77800
O89         O  0.15444053  0.34465538  0.18071804    -0.60600
O90         O  0.13104466  0.38537937  0.21469317    -0.51500
C91         C  0.21749506  0.30950572  0.25087808     0.70500
O92         O  0.22580644  0.33885657  0.24136717    -0.46400
C93         C  0.14644280  0.36871437  0.33384715     0.75200
O94         O  0.20186095  0.40746049  0.27396667    -0.58200
O95         O  0.13208206  0.35389640  0.30056258    -0.48300
O96         O  0.19766872  0.39983030  0.20086705    -0.54700
C97         C  0.13288520  0.36767095  0.17826134     0.85400
O98         O  0.18682196  0.30639986  0.25899446    -0.56600
O99         O  0.17570066  0.37720311  0.32438654    -0.59900
In100      In  0.18073464  0.61928729  0.23696433     1.36900
C101        C  0.20678205  0.55879674  0.22268126     0.77800
O102        O  0.18089951  0.59974296  0.31100808    -0.60600
O103        O  0.13997845  0.62956724  0.29002347    -0.51500
C104        C  0.22124660  0.67181612  0.23277959     0.70500
O105        O  0.22779901  0.64410742  0.21419179    -0.46400
C106        C  0.13872726  0.62049839  0.16468806     0.75200
O107        O  0.21919123  0.57883947  0.25168029    -0.58200
O108        O  0.13037206  0.61116937  0.20534800    -0.48300
O109        O  0.18247191  0.57043794  0.20038964    -0.54700
C110        C  0.15296334  0.61188560  0.32199252     0.85400
O111        O  0.19358088  0.67283778  0.25372873    -0.56600
O112        O  0.16751583  0.63260229  0.16236756    -0.59900
C113        C  0.21768279  0.45346399  0.22487124     0.00100
C114        C  0.20741763  0.46920183  0.18328078    -0.11800
C115        C  0.20682454  0.50394968  0.17969542     0.02300
C116        C  0.21706989  0.52348399  0.21819765     0.00000
C117        C  0.23195609  0.50763649  0.25683555    -0.11700
C118        C  0.23233139  0.47281764  0.26045866     0.02200
H119        H  0.19703210  0.45456036  0.15506673     0.15200
H120        H  0.24083425  0.52237128  0.28600184     0.15200
C121        C  0.24679983  0.45772689  0.30172612     0.36800
C122        C  0.19345546  0.51877822  0.13738658     0.36800
N123        N  0.25874461  0.44568713  0.33462175    -0.43500
N124        N  0.18260515  0.53069680  0.10364401    -0.43500
C125        C  0.28775172  0.22704850  0.25718665     0.00100
C126        C  0.29882170  0.26014121  0.25618479    -0.11800
C127        C  0.27660426  0.28704788  0.25401985     0.02300
C128        C  0.24194332  0.28140584  0.25272608     0.00000
C129        C  0.23067107  0.24831105  0.25360485    -0.11700
C130        C  0.25313518  0.22122279  0.25560457     0.02200
H131        H  0.32523015  0.26526505  0.25735622     0.15200
H132        H  0.20420328  0.24352682  0.25252248     0.15200
C133        C  0.23983695  0.18794856  0.25609147     0.36800
C134        C  0.29051324  0.32012089  0.25443626     0.36800
N135        N  0.22905644  0.16131002  0.25640748    -0.43500
N136        N  0.30184736  0.34652147  0.25484828    -0.43500
C137        C  0.53326732  0.16853247  0.27723008     0.00100
C138        C  0.51698090  0.13885478  0.28879472    -0.11800
C139        C  0.48268501  0.13648565  0.28678644     0.02300
C140        C  0.46329318  0.16498340  0.27550615     0.00000
C141        C  0.47926909  0.19558205  0.26796438    -0.11700
C142        C  0.51412688  0.19755492  0.26844540     0.02200
H143        H  0.53121168  0.11648008  0.29704073     0.15200
H144        H  0.46461503  0.21772486  0.26014706     0.15200
C145        C  0.52933524  0.22932639  0.25921331     0.36800
C146        C  0.46873175  0.10386057  0.29485279     0.36800
N147        N  0.54136414  0.25494386  0.25212856    -0.43500
N148        N  0.45786523  0.07758837  0.30094369    -0.43500
C149        C  0.76258213  0.27119842  0.25010919     0.00100
C150        C  0.72973997  0.28122153  0.24033728    -0.11800
C151        C  0.70360076  0.25849772  0.24071647     0.02300
C152        C  0.70990196  0.22450619  0.25108749     0.00000
C153        C  0.74275817  0.21436252  0.26071181    -0.11700
C154        C  0.76895590  0.23725064  0.26050911     0.02200
H155        H  0.72429650  0.30712144  0.23215195     0.15200
H156        H  0.74801938  0.18847001  0.26912807     0.15200
C157        C  0.80177554  0.22519124  0.27244356     0.36800
C158        C  0.67072365  0.27106580  0.22983403     0.36800
N159        N  0.82798920  0.21533189  0.28222285    -0.43500
N160        N  0.64442797  0.28123271  0.22111563    -0.43500
C161        C  0.81999784  0.44741207  0.24210373     0.00100
C162        C  0.84473400  0.46409250  0.21677172    -0.11800
C163        C  0.84512419  0.49869784  0.21441203     0.02300
C164        C  0.82049271  0.51752166  0.23808455     0.00000
C165        C  0.79439721  0.50101676  0.26087180    -0.11700
C166        C  0.79401516  0.46604482  0.26320894     0.02200
H167        H  0.86428575  0.45002918  0.19919489     0.15200
H168        H  0.77528433  0.51540764  0.27881186     0.15200
C169        C  0.76805888  0.45018614  0.28994236     0.36800
C170        C  0.87114331  0.51425482  0.18729017     0.36800
N171        N  0.74727062  0.43755256  0.31155933    -0.43500
N172        N  0.89190298  0.52692503  0.16570900    -0.43500
C173        C  0.29343815  0.75057928  0.23789651     0.00100
C174        C  0.29436477  0.72723830  0.20126821    -0.11800
C175        C  0.27037524  0.70237141  0.19764755     0.02300
C176        C  0.24469723  0.70020517  0.23151844     0.00000
C177        C  0.24266857  0.72464331  0.26669065    -0.11700
C178        C  0.26671000  0.74963761  0.27023922     0.02200
H179        H  0.31428595  0.72806642  0.17554867     0.15200
H180        H  0.22299520  0.72344550  0.29273725     0.15200
C181        C  0.26420462  0.77272479  0.30889811     0.36800
C182        C  0.27276498  0.67971272  0.15844210     0.36800
N183        N  0.26223343  0.79118868  0.33994541    -0.43500
N184        N  0.27484100  0.66178302  0.12679149    -0.43500
C185        C  0.70842775  0.74101980  0.25280814     0.00100
C186        C  0.73936561  0.75009345  0.23382266    -0.11800
C187        C  0.76594050  0.72715504  0.23150697     0.02300
C188        C  0.76171368  0.69422247  0.24828362     0.00000
C189        C  0.73110697  0.68564121  0.26857625    -0.11700
C190        C  0.70480581  0.70852690  0.27139274     0.02200
H191        H  0.74265173  0.77500686  0.21981020     0.15200
H192        H  0.72756591  0.66076238  0.28260357     0.15200
C193        C  0.67472230  0.69784023  0.29454509     0.36800
C194        C  0.79684538  0.73811861  0.21104355     0.36800
N195        N  0.65078596  0.68913198  0.31337335    -0.43500
N196        N  0.82155985  0.74712963  0.19468817    -0.43500
C197        C  0.46573728  0.76423249  0.25532353     0.00100
C198        C  0.48181130  0.75924535  0.21208671    -0.11800
C199        C  0.51647242  0.75916923  0.20882966     0.02300
C200        C  0.53576441  0.76324545  0.24978336     0.00000
C201        C  0.51976667  0.76320706  0.29363207    -0.11700
C202        C  0.48503716  0.76423360  0.29682318     0.02200
H203        H  0.46733804  0.75842357  0.18006124     0.15200
H204        H  0.53428578  0.76589179  0.32539127     0.15200
C205        C  0.47044618  0.76903669  0.34274914     0.36800
C206        C  0.53119454  0.75765144  0.16255374     0.36800
N207        N  0.45893341  0.77320233  0.37957796    -0.43500
N208        N  0.54279159  0.75673609  0.12534787    -0.43500
C209        C  0.09842880  0.58253166  0.44811810     0.00100
C210        C  0.13338373  0.57774960  0.44428621    -0.11800
C211        C  0.15182657  0.58827384  0.40519917     0.02300
C212        C  0.13579388  0.60420882  0.36726159     0.00000
C213        C  0.10154874  0.61000312  0.37056626    -0.11700
C214        C  0.08265834  0.59896675  0.40908890     0.02200
H215        H  0.14655142  0.56518730  0.47251648     0.15200
H216        H  0.08887222  0.62158360  0.34105790     0.15200
C217        C  0.04735117  0.60216832  0.40211262     0.36800
C218        C  0.18726984  0.58222971  0.40525534     0.36800
N219        N  0.01946318  0.60554165  0.39325489    -0.43500
N220        N  0.21568524  0.57743266  0.40530547    -0.43500
C221        C  0.09024984  0.58467099  0.03966570     0.00100
C222        C  0.11078491  0.61334079  0.03784517    -0.11800
C223        C  0.12496475  0.62716358  0.07823161     0.02300
C224        C  0.11849513  0.61310527  0.12251593     0.00000
C225        C  0.09475505  0.58801428  0.12569689    -0.11700
C226        C  0.08005439  0.57451014  0.08562467     0.02200
H227        H  0.11596207  0.62576740  0.00499331     0.15200
H228        H  0.08817888  0.57806326  0.15990830     0.15200
C229        C  0.05367259  0.55139898  0.09452240     0.36800
C230        C  0.14549332  0.65628997  0.07331994     0.36800
N231        N  0.03182146  0.53419159  0.10423847    -0.43500
N232        N  0.16169911  0.67982784  0.06961901    -0.43500
C233        C  0.13021139  0.37746256  0.37936462     0.00100
C234        C  0.10126067  0.36113493  0.39421972    -0.11800
C235        C  0.08397312  0.37128971  0.43502714     0.02300
C236        C  0.09417665  0.40021672  0.46006112     0.00000
C237        C  0.12578457  0.41282635  0.44831416    -0.11700
C238        C  0.14295355  0.40287801  0.40819353     0.02200
H239        H  0.09220623  0.34021283  0.37410339     0.15200
H240        H  0.13701561  0.43188721  0.46965732     0.15200
C241        C  0.17265575  0.42112416  0.39681196     0.36800
C242        C  0.05712216  0.35050103  0.45104830     0.36800
N243        N  0.19617571  0.43641645  0.38852949    -0.43500
N244        N  0.03571780  0.33359634  0.46369899    -0.43500
C245        C  0.08581239  0.40224964  0.04965995     0.00100
C246        C  0.10650845  0.37331251  0.05009081    -0.11800
C247        C  0.12022492  0.36026514  0.09148464     0.02300
C248        C  0.11372134  0.37580653  0.13492949     0.00000
C249        C  0.09124734  0.40273043  0.13589444    -0.11700
C250        C  0.07724511  0.41575517  0.09463644     0.02200
H251        H  0.11280079  0.36027463  0.01814543     0.15200
H252        H  0.08531872  0.41457835  0.16909750     0.15200
C253        C  0.05416512  0.44328024  0.09991264     0.36800
C254        C  0.14159169  0.33122546  0.08765585     0.36800
N255        N  0.03484695  0.46456198  0.10423056    -0.43500
N256        N  0.15862828  0.30792479  0.08438018    -0.43500
C257        C  0.08786805  0.52877965  0.99018855     0.00100
C258        C  0.10344157  0.51114691  0.02703913    -0.11800
C259        C  0.10232361  0.47583216  0.03006877     0.02300
C260        C  0.08168837  0.45680827  0.99881844     0.00000
C261        C  0.07673478  0.47376919  0.45688108    -0.11700
C262        C  0.08128238  0.50811269  0.45111409     0.02200
H263        H  0.11716793  0.52465633  0.05330701     0.15200
H264        H  0.06988801  0.46031823  0.42635350     0.15200
C265        C  0.07139407  0.52157554  0.40619525     0.36800
C266        C  0.12709467  0.46084714  0.06020642     0.36800
N267        N  0.06340367  0.53062758  0.36928538    -0.43500
N268        N  0.14754534  0.44952201  0.08405514    -0.43500
C269        C  0.90266552  0.39913029  0.04222567     0.00100
C270        C  0.90902450  0.36466330  0.05107484    -0.11800
C271        C  0.89550940  0.34781110  0.08997663     0.02300
C272        C  0.87288256  0.36438284  0.11947370     0.00000
C273        C  0.86455972  0.39755836  0.10975381    -0.11700
C274        C  0.87886594  0.41517329  0.07260720     0.02200
H275        H  0.92610707  0.35112838  0.02844339     0.15200
H276        H  0.84685165  0.41032174  0.13249065     0.15200
C277        C  0.86638271  0.44888735  0.06783823     0.36800
C278        C  0.90498446  0.31358987  0.09857075     0.36800
N279        N  0.85550670  0.47568561  0.06558661    -0.43500
N280        N  0.91270694  0.28615575  0.10546078    -0.43500
C281        C  0.87692204  0.36019310  0.37731740     0.00100
C282        C  0.85791007  0.38132429  0.40600461    -0.11800
C283        C  0.87178118  0.39848941  0.44363074     0.02300
C284        C  0.90630718  0.39506774  0.45429160     0.00000
C285        C  0.92413267  0.37026749  0.42861588    -0.11700
C286        C  0.91020350  0.35381445  0.38989310     0.02200
H287        H  0.83202073  0.38610590  0.39747867     0.15200
H288        H  0.94912457  0.36312408  0.43844757     0.15200
C289        C  0.93055469  0.33020430  0.36431289     0.36800
C290        C  0.84949436  0.42122738  0.46739773     0.36800
N291        N  0.94700362  0.31122428  0.34409282    -0.43500
N292        N  0.82991107  0.43911346  0.48365836    -0.43500
C293        C  0.95977179  0.41017630  0.99989196     0.00100
C294        C  0.98036665  0.41674807  0.45659014    -0.11800
C295        C  0.01547268  0.41785361  0.45518105     0.02300
C296        C  0.03299162  0.41262975  0.99811770     0.00000
C297        C  0.01430021  0.40052020  0.03696181    -0.11700
C298        C  0.97940819  0.40276462  0.04022970     0.02200
H299        H  0.96684884  0.42219931  0.42457623     0.15200
H300        H  0.02636265  0.38965188  0.06697799     0.15200
C301        C  0.96622100  0.40057674  0.08735988     0.36800
C302        C  0.02915954  0.42025633  0.40845905     0.36800
N303        N  0.95654559  0.39921952  0.12562364    -0.43500
N304        N  0.03908889  0.42189611  0.37033713    -0.43500
C305        C  0.91968003  0.58344106  0.44214643     0.00100
C306        C  0.89738927  0.61125885  0.44623654    -0.11800
C307        C  0.88053966  0.62472361  0.40760556     0.02300
C308        C  0.88833168  0.61346204  0.36254203     0.00000
C309        C  0.91447732  0.59082761  0.35673176    -0.11700
C310        C  0.93044106  0.57615017  0.39528816     0.02200
H311        H  0.89184215  0.62269149  0.47961164     0.15200
H312        H  0.92159334  0.58337590  0.32144394     0.15200
C313        C  0.95845313  0.55540051  0.38307668     0.36800
C314        C  0.85551484  0.65023596  0.41508370     0.36800
N315        N  0.98095860  0.54058738  0.36826667    -0.43500
N316        N  0.83548180  0.67067959  0.42119385    -0.43500
C317        C  0.87814068  0.60749180  0.11404444     0.00100
C318        C  0.85999768  0.59196119  0.07857724    -0.11800
C319        C  0.87562750  0.57831437  0.03906765     0.02300
C320        C  0.91086104  0.58058980  0.03288456     0.00000
C321        C  0.92871730  0.59671760  0.06888868    -0.11700
C322        C  0.91296149  0.60975771  0.10884666     0.02200
H323        H  0.83327403  0.58956601  0.08222576     0.15200
H324        H  0.95544448  0.59747982  0.06846744     0.15200
C325        C  0.93377670  0.62333082  0.14518571     0.36800
C326        C  0.85429498  0.56275609  0.00489880     0.36800
N327        N  0.95058555  0.63393172  0.17433707    -0.43500
N328        N  0.83690390  0.55071389  0.97761369    -0.43500
C329        C  0.91877209  0.52641305  0.99310057     0.00100
C330        C  0.90931358  0.50825157  0.45254745    -0.11800
C331        C  0.90946582  0.47291465  0.45123651     0.02300
C332        C  0.91622027  0.45394052  0.99422222     0.00000
C333        C  0.92767027  0.47241945  0.03274403    -0.11700
C334        C  0.92818571  0.50721757  0.03350576     0.02200
H335        H  0.90152059  0.52157222  0.42144105     0.15200
H336        H  0.93662527  0.45916533  0.06341870     0.15200
C337        C  0.94292325  0.52150136  0.07492297     0.36800
C338        C  0.90529712  0.45855147  0.40526310     0.36800
N339        N  0.95521396  0.53172081  0.10853734    -0.43500
N340        N  0.90262712  0.44780557  0.36780772    -0.43500
C341        C  0.03888505  0.56981577  0.99498249     0.00100
C342        C  0.02433466  0.53958676  0.49841144    -0.11800
C343        C  0.99205236  0.53807406  0.48486748     0.02300
C344        C  0.96742761  0.56694409  0.98960605     0.00000
C345        C  0.98407208  0.59801253  0.99213371    -0.11700
C346        C  0.01936129  0.59968046  0.99531172     0.02200
H347        H  0.03526585  0.51591117  0.50798345     0.15200
H348        H  0.96952972  0.62089773  0.99183828     0.15200
C349        C  0.03461247  0.63202527  0.99747283     0.36800
C350        C  0.98546732  0.50864499  0.45781322     0.36800
N351        N  0.04673991  0.65804073  0.99870855    -0.43500
N352        N  0.98228239  0.48595101  0.43349239    -0.43500
C353        C  0.59064383  0.07886600  0.46367079     0.00100
C354        C  0.61159277  0.10699728  0.46847295    -0.11800
C355        C  0.62693432  0.12214362  0.42976459     0.02300
C356        C  0.62110925  0.11002321  0.38443225     0.00000
C357        C  0.59758947  0.08498257  0.37852822    -0.11700
C358        C  0.58143685  0.07049624  0.41690496     0.02200
H359        H  0.61605567  0.11808634  0.50228220     0.15200
H360        H  0.59071650  0.07752071  0.34329184     0.15200
C361        C  0.55530419  0.04760822  0.40589375     0.36800
C362        C  0.64858570  0.15005748  0.43757081     0.36800
N363        N  0.53359987  0.03069891  0.39487248    -0.43500
N364        N  0.66587631  0.17248245  0.44381750    -0.43500
C365        C  0.59291742  0.07295716  0.05369483     0.00100
C366        C  0.57102884  0.08280131  0.09004542    -0.11800
C367        C  0.58204406  0.09944821  0.12969295     0.02300
C368        C  0.61617968  0.10462892  0.13662295     0.00000
C369        C  0.63884410  0.09042304  0.10505380    -0.11700
C370        C  0.62770519  0.07426941  0.06426961     0.02200
H371        H  0.54480728  0.07752410  0.08858565     0.15200
H372        H  0.66527227  0.09284648  0.11147741     0.15200
C373        C  0.65299067  0.06071414  0.03356872     0.36800
C374        C  0.55724768  0.11022242  0.16318525     0.36800
N375        N  0.67424328  0.05049173  0.01005895    -0.43500
N376        N  0.53648635  0.11843742  0.18891352    -0.43500
C377        C  0.37701476  0.11070910  0.39114379     0.00100
C378        C  0.41143671  0.11242764  0.39550649    -0.11800
C379        C  0.42869605  0.09521412  0.43053942     0.02300
C380        C  0.41103898  0.07930766  0.46793912     0.00000
C381        C  0.37586023  0.07681089  0.46166539    -0.11700
C382        C  0.35915763  0.09140180  0.42327426     0.03800
H383        H  0.42538131  0.12577138  0.36883747     0.15200
H384        H  0.36123926  0.06340203  0.48742218     0.15200
C385        C  0.32389618  0.08668180  0.41789192     0.36800
C386        C  0.46368890  0.09198509  0.42111508     0.36800
N387        N  0.29565505  0.08272253  0.41313855    -0.43500
N388        N  0.49142105  0.09063843  0.41043046    -0.43500
C389        C  0.41581181  0.08248343  0.05855744     0.00100
C390        C  0.39393233  0.11058540  0.05509125    -0.11800
C391        C  0.37746467  0.12416199  0.09409132     0.02300
C392        C  0.38389290  0.11151691  0.13902026     0.00000
C393        C  0.40873013  0.08718155  0.14422187    -0.11700
C394        C  0.42551787  0.07360503  0.10526692     0.02200
H395        H  0.38909502  0.12281455  0.02204637     0.15200
H396        H  0.41600834  0.07958598  0.17935256     0.15200
C397        C  0.45349271  0.05237400  0.11622037     0.36800
C398        C  0.35338687  0.15062549  0.08686216     0.36800
N399        N  0.47629599  0.03690864  0.12852856    -0.43500
N400        N  0.33392915  0.17165428  0.08101811    -0.43500
C401        C  0.46732973  0.06268852  0.01351839     0.00100
C402        C  0.48404330  0.09215210  0.51571481    -0.11800
C403        C  0.51926665  0.09253390  0.51046412     0.02300
C404        C  0.53937268  0.06205887  0.00450590     0.00000
C405        C  0.51992443  0.03327262  0.00019771    -0.11700
C406        C  0.48666838  0.03281593  0.01271236     0.02200
H407        H  0.47052657  0.11557539  0.51854134     0.15200
H408        H  0.53075033  0.00946358  0.99121145     0.15200
C409        C  0.47769162  0.00310704  0.03812706     0.36800
C410        C  0.53538317  0.12450097  0.51014655     0.36800
N411        N  0.47258117  0.98002583  0.06135778    -0.43500
N412        N  0.54805666  0.15027048  0.51001869    -0.43500
C413        C  0.41353049  0.89346429  0.46209612     0.00100
C414        C  0.42463958  0.90327960  0.41695363    -0.11800
C415        C  0.41293472  0.88925203  0.37548662     0.02300
C416        C  0.39135896  0.86204419  0.37737006     0.00000
C417        C  0.38442065  0.84802218  0.42122793    -0.11700
C418        C  0.39630306  0.86220045  0.46302408     0.02200
H419        H  0.44181929  0.92339974  0.41284615     0.15200
H420        H  0.37057039  0.82496074  0.42276592     0.15200
C421        C  0.39314462  0.84094052  0.50361029     0.36800
C422        C  0.42443724  0.90308377  0.33150054     0.36800
N423        N  0.38964844  0.82269924  0.53475097    -0.43500
N424        N  0.43357296  0.91450651  0.29649627    -0.43500
C425        C  0.41135839  0.90434858  0.05484109     0.00100
C426        C  0.43189712  0.90691026  0.09488251    -0.11800
C427        C  0.42312539  0.89283228  0.13786055     0.02300
C428        C  0.39157809  0.87824841  0.14358363     0.00000
C429        C  0.36806810  0.88297045  0.10774001    -0.11700
C430        C  0.37725543  0.89741759  0.06450598     0.02200
H431        H  0.45571849  0.91905153  0.09269921     0.15200
H432        H  0.34278087  0.87457208  0.11284969     0.15200
C433        C  0.35135392  0.90462764  0.03084163     0.36800
C434        C  0.44765847  0.89338304  0.17477142     0.36800
N435        N  0.33058506  0.91039135  0.00392571    -0.43500
N436        N  0.46773314  0.89383742  0.20374829    -0.43500
C437        C  0.41119106  0.95499497  0.00261258     0.00100
C438        C  0.39918232  0.97281381  0.04279156    -0.11800
C439        C  0.39819084  0.00790718  0.04448618     0.02300
C440        C  0.41516739  0.02642704  0.00945294     0.00000
C441        C  0.42022079  0.00819405  0.46682628    -0.11700
C442        C  0.41288867  0.97439809  0.46154333     0.02200
H443        H  0.39059819  0.96024746  0.07397793     0.15200
H444        H  0.42813033  0.02189635  0.43600389     0.15200
C445        C  0.39504361  0.96707011  0.41910757     0.36800
C446        C  0.37685879  0.02279517  0.07950875     0.36800
N447        N  0.38008486  0.96252716  0.38512584    -0.43500
N448        N  0.35866740  0.03373877  0.10713932    -0.43500
C449        C  0.61972191  0.85479461  0.11635576     0.00100
C450        C  0.60237118  0.83789664  0.08102449    -0.11800
C451        C  0.58984780  0.85469855  0.04127610     0.02300
C452        C  0.59339653  0.88993600  0.03661914     0.00000
C453        C  0.61566983  0.90495238  0.06885928    -0.11700
C454        C  0.62748115  0.88842719  0.10881785     0.02200
H455        H  0.59732353  0.81155108  0.08527831     0.15200
H456        H  0.62400358  0.93022935  0.06413323     0.15200
C457        C  0.64715189  0.90704303  0.14179966     0.36800
C458        C  0.57260402  0.83481438  0.00704153     0.36800
N459        N  0.66268134  0.92208257  0.16833973    -0.43500
N460        N  0.55860378  0.81843200  0.98036701    -0.43500
C461        C  0.58790395  0.89640808  0.44941111     0.00100
C462        C  0.56449089  0.88284603  0.41772083    -0.11800
C463        C  0.57355284  0.86794408  0.37542164     0.02300
C464        C  0.60732047  0.86476705  0.36272630     0.00000
C465        C  0.63130915  0.87664186  0.39412981    -0.11700
C466        C  0.62212181  0.89210222  0.43686509     0.02200
H467        H  0.53831912  0.88213142  0.42593380     0.15200
H468        H  0.65742880  0.87365613  0.38542965     0.15200
C469        C  0.64864837  0.90285879  0.46712251     0.36800
C470        C  0.54706781  0.85428799  0.34734293     0.36800
N471        N  0.67013420  0.91161207  0.49087247    -0.43500
N472        N  0.52561423  0.84350576  0.32528886    -0.43500
C473        C  0.53662463  0.91174102  0.99926540     0.00100
C474        C  0.51810761  0.88973730  0.02739499    -0.11800
C475        C  0.48324483  0.88784731  0.02404260     0.02300
C476        C  0.46411091  0.91472491  0.00417598     0.00000
C477        C  0.48277450  0.93690868  0.47727853    -0.11700
C478        C  0.51735199  0.93406117  0.47178958     0.02200
H479        H  0.53025961  0.87222508  0.05037981     0.15200
H480        H  0.47092067  0.95649350  0.45763422     0.15200
C481        C  0.53189085  0.95130494  0.43237082     0.36800
C482        C  0.46897342  0.85720561  0.04094392     0.36800
N483        N  0.54379943  0.96293880  0.39925869    -0.43500
N484        N  0.45942143  0.83201486  0.05517693    -0.43500
C485        C  0.58944632  0.02085957  0.00716441     0.00100
C486        C  0.57775327  0.00195067  0.04566731    -0.11800
C487        C  0.57408764  0.96740715  0.04323242     0.02300
C488        C  0.58504605  0.94926084  0.00288836     0.00000
C489        C  0.60246864  0.96795517  0.47070477    -0.11700
C490        C  0.60548203  0.00286854  0.47315247     0.02200
H491        H  0.56685649  0.01467197  0.07557717     0.15200
H492        H  0.61301256  0.95579765  0.44034733     0.15200
C493        C  0.62832522  0.01761753  0.44020047     0.36800
C494        C  0.55722119  0.95173382  0.08231032     0.36800
N495        N  0.64732790  0.02838097  0.41374167    -0.43500
N496        N  0.54394343  0.93942053  0.11390641    -0.43500
C497        C  0.57604773  0.91134792  0.99666174    -0.02200
C498        C  0.42430236  0.91574528  0.50528318    -0.02200
C499        C  0.42800085  0.06325032  0.01308581    -0.02200
C500        C  0.57744021  0.05923489  0.50748051    -0.02200
C501        C  0.93215167  0.56414230  0.48742931    -0.02200
C502        C  0.92270080  0.41463020  0.49583135    -0.02200
C503        C  0.07459728  0.41735233  0.50147076    -0.02200
C504        C  0.08152996  0.56658772  0.49299645    -0.02200
In505      In  0.62709845  0.80464394  0.74566035     1.36900
C506        C  0.57042857  0.77187920  0.75246123     0.77800
O507        O  0.59787636  0.84423075  0.78276990    -0.60600
O508        O  0.64339833  0.82971051  0.81366687    -0.51500
C509        C  0.67950605  0.76330351  0.74889668     0.70500
O510        O  0.65053838  0.75507292  0.76038127    -0.46400
C511        C  0.62420952  0.83567153  0.66254076     0.75200
O512        O  0.58820532  0.77800591  0.78772071    -0.58200
O513        O  0.63422290  0.84972287  0.69947263    -0.48300
O514        O  0.58335295  0.77988707  0.71383679    -0.54700
C515        C  0.61682204  0.84651918  0.81764123     0.85400
O516        O  0.68195968  0.79343363  0.73672353    -0.56600
O517        O  0.61796132  0.80521285  0.66787855    -0.59900
In518      In  0.37529823  0.81209217  0.75565741     1.36900
C519        C  0.43115702  0.77650932  0.76051616     0.77800
O520        O  0.35565708  0.84451825  0.69533918    -0.60600
O521        O  0.40706844  0.84356649  0.71011283    -0.51500
C522        C  0.32328992  0.77205794  0.74663561     0.70500
O523        O  0.35140680  0.76604256  0.72891268    -0.46400
C524        C  0.38033600  0.84622384  0.83491981     0.75200
O525        O  0.41488664  0.78520100  0.79624653    -0.58200
O526        O  0.37925129  0.86007119  0.79516210    -0.48300
O527        O  0.41688533  0.78307114  0.72219996    -0.54700
C528        C  0.38429055  0.85469743  0.68416533     0.85400
O529        O  0.32126121  0.79962365  0.76769970    -0.56600
O530        O  0.37457570  0.81542953  0.83429224    -0.59900
In531      In  0.83433343  0.34761411  0.74824088     1.36900
C532        C  0.82618848  0.41308149  0.75004932     0.77800
O533        O  0.83057860  0.35419583  0.82517967    -0.60600
O534        O  0.87775542  0.33968086  0.79822779    -0.51500
C535        C  0.78992449  0.29857858  0.74670541     0.70500
O536        O  0.78236255  0.32908767  0.74339705    -0.46400
C537        C  0.85956740  0.35263423  0.66235931     0.75200
O538        O  0.80159889  0.39380784  0.75422486    -0.58200
O539        O  0.87556529  0.33767954  0.69454123    -0.48300
O540        O  0.85396075  0.39849559  0.74662288    -0.54700
C541        C  0.86109004  0.34975359  0.83334405     0.85400
O542        O  0.82081353  0.29297238  0.75042990    -0.56600
O543        O  0.82994795  0.35998064  0.67278917    -0.59900
In544      In  0.83657485  0.62169612  0.74011275     1.36900
C545        C  0.82796321  0.55655350  0.74406139     0.77800
O546        O  0.83505361  0.60708175  0.66486037    -0.60600
O547        O  0.87686903  0.63403377  0.68842818    -0.51500
C548        C  0.78980716  0.66895929  0.74077742     0.70500
O549        O  0.78480151  0.63897818  0.75174062    -0.46400
C550        C  0.86982211  0.62456032  0.81978359     0.75200
O551        O  0.80358859  0.57622716  0.73826493    -0.58200
O552        O  0.88353662  0.62917419  0.78047247    -0.48300
O553        O  0.85541992  0.57053239  0.74996856    -0.54700
C554        C  0.86388820  0.61736174  0.65581844     0.85400
O555        O  0.81943982  0.67505537  0.72893521    -0.56600
O556        O  0.83856828  0.62309188  0.81873830    -0.59900
In557      In  0.36232574  0.15515808  0.76605452     1.36900
C558        C  0.42729923  0.16302279  0.77012901     0.77800
O559        O  0.37155618  0.15991679  0.84226562    -0.60600
O560        O  0.34925769  0.11494216  0.81897116    -0.51500
C561        C  0.31302954  0.19939979  0.75981281     0.70500
O562        O  0.34341689  0.20690211  0.76041760    -0.46400
C563        C  0.36951361  0.12649230  0.68299651     0.75200
O564        O  0.40773175  0.18795800  0.77036212    -0.58200
O565        O  0.36163007  0.11006656  0.71927183    -0.48300
O566        O  0.41321411  0.13535885  0.76633144    -0.54700
C567        C  0.36369520  0.13034447  0.85175640     0.85400
O568        O  0.30755508  0.16843563  0.76278730    -0.56600
O569        O  0.36909437  0.15768913  0.68816739    -0.59900
In570      In  0.63488642  0.15648736  0.75829548     1.36900
C571        C  0.57034031  0.16633779  0.77000127     0.77800
O572        O  0.61564533  0.15493415  0.68526773    -0.60600
O573        O  0.64636485  0.11450587  0.70759479    -0.51500
C574        C  0.68445336  0.20009156  0.75156123     0.70500
O575        O  0.65415283  0.20834443  0.75344830    -0.46400
C576        C  0.63474715  0.12745108  0.84123074     0.75200
O577        O  0.58953797  0.19063335  0.76239876    -0.58200
O578        O  0.64150157  0.11165919  0.80403561    -0.48300
O579        O  0.58461875  0.13833257  0.77100049    -0.54700
C580        C  0.62694072  0.12619898  0.67676265     0.85400
O581        O  0.68957493  0.16897908  0.75330816    -0.56600
O582        O  0.63391977  0.15874216  0.83685679    -0.59900
In583      In  0.17328996  0.35920806  0.75187389     1.36900
C584        C  0.20507903  0.41623261  0.73805454     0.77800
O585        O  0.15156210  0.34190798  0.68330163    -0.60600
O586        O  0.13016754  0.38436553  0.71550874    -0.51500
C587        C  0.21532655  0.30704231  0.75018134     0.70500
O588        O  0.22298941  0.33627709  0.73902936    -0.46400
C589        C  0.14454631  0.36563758  0.83621209     0.75200
O590        O  0.19960216  0.40454036  0.77831561    -0.58200
O591        O  0.12926402  0.35308078  0.80187635    -0.48300
O592        O  0.19664146  0.39743605  0.70496163    -0.54700
C593        C  0.13136335  0.36604737  0.67963521     0.85400
O594        O  0.18516747  0.30397102  0.76169734    -0.56600
O595        O  0.17458491  0.37171791  0.82776992    -0.59900
In596      In  0.18148221  0.61776369  0.74078985     1.36900
C597        C  0.20539704  0.55625880  0.72898274     0.77800
O598        O  0.18004500  0.59889352  0.81500738    -0.60600
O599        O  0.13978504  0.62890773  0.79193363    -0.51500
C600        C  0.22342560  0.66914478  0.73829977     0.70500
O601        O  0.22982159  0.64110411  0.72064004    -0.46400
C602        C  0.14207288  0.61941092  0.66550499     0.75200
O603        O  0.21870177  0.57638583  0.75704389    -0.58200
O604        O  0.13142927  0.61320904  0.70631033    -0.48300
O605        O  0.18107050  0.56814486  0.70701445    -0.54700
C606        C  0.15202817  0.61141092  0.82467351     0.85400
O607        O  0.19512880  0.67112925  0.75735871    -0.56600
O608        O  0.17202825  0.62840467  0.66422744    -0.59900
C609        C  0.21596094  0.45081491  0.73018394     0.00100
C610        C  0.20489551  0.46681185  0.68926818    -0.11800
C611        C  0.20407974  0.50150273  0.68621938     0.02300
C612        C  0.21501891  0.52080321  0.72456343     0.00000
C613        C  0.23050934  0.50474534  0.76259271    -0.11700
C614        C  0.23106013  0.46987741  0.76566260     0.02200
H615        H  0.19403464  0.45236652  0.66120847     0.15200
H616        H  0.23994026  0.51932053  0.79156231     0.15200
C617        C  0.24657573  0.45436414  0.80585196     0.36800
C618        C  0.18975916  0.51643041  0.64460505     0.36800
N619        N  0.25949239  0.44199025  0.83776329    -0.43500
N620        N  0.17808926  0.52837270  0.61143338    -0.43500
C621        C  0.28674194  0.22561220  0.75567969     0.00100
C622        C  0.29703537  0.25823121  0.74589675    -0.11800
C623        C  0.27439448  0.28473780  0.74328778     0.02300
C624        C  0.24003936  0.27912906  0.75047602     0.00000
C625        C  0.22948613  0.24636019  0.75936570    -0.11700
C626        C  0.25239610  0.21968304  0.76197558     0.02200
H627        H  0.32321677  0.26332776  0.74060799     0.15200
H628        H  0.20327582  0.24156081  0.76481877     0.15200
C629        C  0.23991839  0.18685381  0.77226630     0.36800
C630        C  0.28775090  0.31745834  0.73431517     0.36800
N631        N  0.22977981  0.16059026  0.78059456    -0.43500
N632        N  0.29866121  0.34358514  0.72722650    -0.43500
C633        C  0.53383856  0.16862543  0.77584989     0.00100
C634        C  0.51751142  0.13902392  0.78782488    -0.11800
C635        C  0.48313670  0.13680074  0.78637329     0.02300
C636        C  0.46378910  0.16520509  0.77446410     0.00000
C637        C  0.47983623  0.19559308  0.76576662    -0.11700
C638        C  0.51469607  0.19749268  0.76609624     0.02200
H639        H  0.53173971  0.11672566  0.79645949     0.15200
H640        H  0.46521843  0.21762324  0.75722323     0.15200
C641        C  0.52996249  0.22900871  0.75544083     0.36800
C642        C  0.46891387  0.10454804  0.79630076     0.36800
N643        N  0.54216584  0.25435820  0.74713782    -0.43500
N644        N  0.45769933  0.07863652  0.80402157    -0.43500
C645        C  0.76404211  0.27217079  0.74635135     0.00100
C646        C  0.73134088  0.28153664  0.73463136    -0.11800
C647        C  0.70539968  0.25854195  0.73525067     0.02300
C648        C  0.71165055  0.22498697  0.74814943     0.00000
C649        C  0.74447859  0.21530969  0.75887832    -0.11700
C650        C  0.77054689  0.23843631  0.75816318     0.02200
H651        H  0.72583956  0.30714193  0.72484606     0.15200
H652        H  0.74975957  0.18968002  0.76874649     0.15200
C653        C  0.80341180  0.22687755  0.77082685     0.36800
C654        C  0.67275147  0.27023076  0.72156907     0.36800
N655        N  0.82973592  0.21754812  0.78101909    -0.43500
N656        N  0.64661052  0.27958179  0.71052023    -0.43500
C657        C  0.82393489  0.44981814  0.74720347     0.00100
C658        C  0.85106586  0.46617947  0.72680758    -0.11800
C659        C  0.85229382  0.50073032  0.72469462     0.02300
C660        C  0.82564644  0.51999129  0.74267437     0.00000
C661        C  0.79770938  0.50390754  0.76132604    -0.11700
C662        C  0.79681914  0.46895254  0.76433570     0.02200
H663        H  0.87181335  0.45189419  0.71262840     0.15200
H664        H  0.77727038  0.51865176  0.77540284     0.15200
C665        C  0.76890291  0.45374315  0.78763217     0.36800
C666        C  0.88134693  0.51564041  0.70362926     0.36800
N667        N  0.74654071  0.44183909  0.80678811    -0.43500
N668        N  0.90468682  0.52764280  0.68715334    -0.43500
C669        C  0.29566768  0.74796576  0.74316194     0.00100
C670        C  0.29777013  0.72336349  0.70834208    -0.11800
C671        C  0.27420850  0.69810118  0.70530244     0.02300
C672        C  0.24753156  0.69696882  0.73772242     0.00000
C673        C  0.24477546  0.72218655  0.77173180    -0.11700
C674        C  0.26860170  0.74742235  0.77494570     0.02200
H675        H  0.31822601  0.72361550  0.68343656     0.15200
H676        H  0.22457914  0.72154197  0.79701473     0.15200
C677        C  0.26556279  0.77114304  0.81278120     0.36800
C678        C  0.27815297  0.67399841  0.66809082     0.36800
N679        N  0.26313958  0.79000593  0.84329549    -0.43500
N680        N  0.28164161  0.65489920  0.63806542    -0.43500
C681        C  0.70796802  0.73939326  0.74851561     0.00100
C682        C  0.73853194  0.74946380  0.72931039    -0.11800
C683        C  0.76564967  0.72728151  0.72600819     0.02300
C684        C  0.76256872  0.69421883  0.74269489     0.00000
C685        C  0.73208718  0.68435091  0.76216430    -0.11700
C686        C  0.70501847  0.70628011  0.76515701     0.02200
H687        H  0.74115228  0.77465285  0.71599824     0.15200
H688        H  0.72918910  0.65912697  0.77525165     0.15200
C689        C  0.67470223  0.69359936  0.78548153     0.36800
C690        C  0.79577564  0.73909477  0.70423885     0.36800
N691        N  0.65059833  0.68302170  0.80175659    -0.43500
N692        N  0.81971847  0.74886496  0.68652347    -0.43500
C693        C  0.46572937  0.76361630  0.76263162     0.00100
C694        C  0.48139336  0.75507191  0.72018657    -0.11800
C695        C  0.51603423  0.75414391  0.71653038     0.02300
C696        C  0.53562167  0.76068680  0.75650809     0.00000
C697        C  0.51990356  0.76392678  0.80032591    -0.11700
C698        C  0.48527906  0.76622373  0.80370038     0.02200
H699        H  0.46668671  0.75228543  0.68862218     0.15200
H700        H  0.53464903  0.76855659  0.83140682     0.15200
C701        C  0.47131031  0.77549857  0.84866370     0.36800
C702        C  0.53043425  0.74963412  0.67044065     0.36800
N703        N  0.46047534  0.78341328  0.88467911    -0.43500
N704        N  0.54180607  0.74642570  0.63334446    -0.43500
C705        C  0.09528348  0.58291043  0.94886237     0.00100
C706        C  0.13036962  0.57884187  0.94684346    -0.11800
C707        C  0.14947365  0.58917712  0.90839408     0.02300
C708        C  0.13398824  0.60426187  0.86935021     0.00000
C709        C  0.09955770  0.60943442  0.87091404    -0.11700
C710        C  0.08002179  0.59847604  0.90883526     0.02200
H711        H  0.14310995  0.56690572  0.97598490     0.15200
H712        H  0.08732757  0.62027417  0.84050571     0.15200
C713        C  0.04477152  0.60035085  0.90034890     0.36800
C714        C  0.18498427  0.58368843  0.91026082     0.36800
N715        N  0.01690345  0.60215113  0.89059141    -0.43500
N716        N  0.21342407  0.57922888  0.91194361    -0.43500
C717        C  0.09438736  0.58371125  0.53934631     0.00100
C718        C  0.11640017  0.61123330  0.53758870    -0.11800
C719        C  0.13096495  0.62454296  0.57804249     0.02300
C720        C  0.12267952  0.61185572  0.62255361     0.00000
C721        C  0.09785849  0.58780360  0.62552118    -0.11700
C722        C  0.08352872  0.57408061  0.58526875     0.02200
H723        H  0.12271187  0.62306932  0.50474042     0.15200
H724        H  0.09041236  0.57852416  0.65975222     0.15200
C725        C  0.05733144  0.55065288  0.59381399     0.36800
C726        C  0.15423675  0.65146892  0.57276760     0.36800
N727        N  0.03585306  0.53282693  0.60294076    -0.43500
N728        N  0.17286741  0.67307233  0.56856931    -0.43500
C729        C  0.12840157  0.37503966  0.88154836     0.00100
C730        C  0.09855921  0.36013906  0.89570769    -0.11800
C731        C  0.08121343  0.37121481  0.93595985     0.02300
C732        C  0.09180291  0.40031635  0.96034883     0.00000
C733        C  0.12391768  0.41188184  0.94903125    -0.11700
C734        C  0.14181623  0.40005763  0.91045614     0.02200
H735        H  0.08900448  0.33938803  0.87570605     0.15200
H736        H  0.13533862  0.43096996  0.97012481     0.15200
C737        C  0.17350543  0.41532585  0.90118957     0.36800
C738        C  0.05393486  0.35105192  0.95214374     0.36800
N739        N  0.19887190  0.42786232  0.89470212    -0.43500
N740        N  0.03216788  0.33463332  0.96483720    -0.43500
C741        C  0.08704609  0.40169142  0.54944092     0.00100
C742        C  0.10781451  0.37283504  0.55030972    -0.11800
C743        C  0.12048595  0.35937154  0.59216050     0.02300
C744        C  0.11312130  0.37461552  0.63558433     0.00000
C745        C  0.09075727  0.40163792  0.63594458    -0.11700
C746        C  0.07752111  0.41487992  0.59428208     0.02200
H747        H  0.11484537  0.36013898  0.51837913     0.15200
H748        H  0.08413802  0.41323271  0.66907355     0.15200
C749        C  0.05392425  0.44202825  0.59906183     0.36800
C750        C  0.14166664  0.33017153  0.58890032     0.36800
N751        N  0.03406310  0.46283836  0.60315568    -0.43500
N752        N  0.15850321  0.30669267  0.58615424    -0.43500
C753        C  0.09141435  0.52814655  0.48980731     0.00100
C754        C  0.10610606  0.51031484  0.52716577    -0.11800
C755        C  0.10406341  0.47510169  0.53055841     0.02300
C756        C  0.08350648  0.45639897  0.49881866     0.00000
C757        C  0.07396967  0.47410198  0.95725243    -0.11700
C758        C  0.07751713  0.50859008  0.95172638     0.02200
H759        H  0.11978049  0.52359752  0.55370633     0.15200
H760        H  0.06684999  0.46057813  0.92699280     0.15200
C761        C  0.06657060  0.52176907  0.90716103     0.36800
C762        C  0.12810383  0.45976197  0.56150370     0.36800
N763        N  0.05769219  0.53016326  0.87035659    -0.43500
N764        N  0.14800107  0.44809920  0.58595891    -0.43500
C765        C  0.90457869  0.39956550  0.54019519     0.00100
C766        C  0.90978797  0.36493823  0.54928192    -0.11800
C767        C  0.89638516  0.34884165  0.58899162     0.02300
C768        C  0.87483397  0.36637581  0.61907020     0.00000
C769        C  0.86755276  0.39973964  0.60910361    -0.11700
C770        C  0.88178981  0.41656969  0.57115231     0.02200
H771        H  0.92609553  0.35070975  0.52635352     0.15200
H772        H  0.85073857  0.41329126  0.63230406     0.15200
C773        C  0.87028532  0.45062130  0.56638407     0.36800
C774        C  0.90518703  0.31451681  0.59812049     0.36800
N775        N  0.86024230  0.47774301  0.56431819    -0.43500
N776        N  0.91248145  0.28703754  0.60554258    -0.43500
C777        C  0.87576310  0.36011634  0.87896648     0.00100
C778        C  0.85629830  0.38082838  0.90765969    -0.11800
C779        C  0.86975158  0.39812886  0.94550821     0.02300
C780        C  0.90427276  0.39507015  0.95659312     0.00000
C781        C  0.92235813  0.37023113  0.93136048    -0.11700
C782        C  0.90894444  0.35389573  0.89218499     0.02200
H783        H  0.83044811  0.38541487  0.89870925     0.15200
H784        H  0.94723233  0.36308163  0.94175884     0.15200
C785        C  0.92979772  0.33071107  0.86666264     0.36800
C786        C  0.84714153  0.42101801  0.96837161     0.36800
N787        N  0.94671177  0.31211992  0.84649122    -0.43500
N788        N  0.82728322  0.43912796  0.98345040    -0.43500
C789        C  0.96192037  0.40938686  0.49748018     0.00100
C790        C  0.97806036  0.41681622  0.95866185    -0.11800
C791        C  0.01316305  0.41792495  0.95684564     0.02300
C792        C  0.03500819  0.41194213  0.49655660     0.00000
C793        C  0.01616927  0.39882480  0.53455565    -0.11700
C794        C  0.98134288  0.40119514  0.53767900     0.02200
H795        H  0.96441197  0.42181303  0.92661333     0.15200
H796        H  0.02808458  0.38728412  0.56421774     0.15200
C797        C  0.96814414  0.39883935  0.58476577     0.36800
C798        C  0.02654971  0.41980585  0.90990366     0.36800
N799        N  0.95848549  0.39745834  0.62303324    -0.43500
N800        N  0.03628718  0.42093317  0.87164714    -0.43500
C801        C  0.91655915  0.58341264  0.94304840     0.00100
C802        C  0.89548117  0.61223316  0.94626145    -0.11800
C803        C  0.88056835  0.62695377  0.90687017     0.02300
C804        C  0.88888263  0.61555078  0.86202902     0.00000
C805        C  0.91340943  0.59104079  0.85738207    -0.11700
C806        C  0.92751848  0.57528677  0.89653379     0.02200
H807        H  0.88966344  0.62376625  0.97948240     0.15200
H808        H  0.92068297  0.58301798  0.82240042     0.15200
C809        C  0.95388370  0.55227653  0.88509191     0.36800
C810        C  0.85712591  0.65405737  0.91331844     0.36800
N811        N  0.97506421  0.53555682  0.87041872    -0.43500
N812        N  0.83838710  0.67581530  0.91852314    -0.43500
C813        C  0.88161073  0.60762379  0.61206705     0.00100
C814        C  0.86370505  0.59090256  0.57744989    -0.11800
C815        C  0.87946312  0.57676543  0.53842014     0.02300
C816        C  0.91462205  0.57969228  0.53184517     0.00000
C817        C  0.93231988  0.59630986  0.56759723    -0.11700
C818        C  0.91637177  0.61016307  0.60685181     0.02200
H819        H  0.83703049  0.58815353  0.58129166     0.15200
H820        H  0.95902280  0.59706664  0.56753983     0.15200
C821        C  0.93690731  0.62498219  0.64251204     0.36800
C822        C  0.85828763  0.56013920  0.50505028     0.36800
N823        N  0.95350796  0.63668213  0.67104699    -0.43500
N824        N  0.84107230  0.54710580  0.47846194    -0.43500
C825        C  0.92277006  0.52604028  0.49069219     0.00100
C826        C  0.90526486  0.50838119  0.95528379    -0.11800
C827        C  0.90605191  0.47304555  0.95399594     0.02300
C828        C  0.91936308  0.45370010  0.49147498     0.00000
C829        C  0.93157599  0.47192020  0.52971662    -0.11700
C830        C  0.93225789  0.50663045  0.53079110     0.02200
H831        H  0.89717172  0.52156249  0.92420729     0.15200
H832        H  0.94053056  0.45850694  0.56026429     0.15200
C833        C  0.94637756  0.52066912  0.57280283     0.36800
C834        C  0.90230515  0.45868197  0.90796926     0.36800
N835        N  0.95791528  0.53068448  0.60706558    -0.43500
N836        N  0.89989440  0.44792354  0.87048834    -0.43500
C837        C  0.04250930  0.56911204  0.49496523     0.00100
C838        C  0.02088940  0.54034712  0.00023052    -0.11800
C839        C  0.98841494  0.53840806  0.98786099     0.02300
C840        C  0.97113849  0.56664254  0.48788003     0.00000
C841        C  0.98784074  0.59755239  0.49228141    -0.11700
C842        C  0.02305946  0.59897565  0.49679328     0.02200
H843        H  0.03213950  0.51690702  0.01035498     0.15200
H844        H  0.97337987  0.62048587  0.49289002     0.15200
C845        C  0.03832471  0.63108769  0.50240223     0.36800
C846        C  0.98180531  0.50835535  0.96251629     0.36800
N847        N  0.05045625  0.65690729  0.50691707    -0.43500
N848        N  0.97870296  0.48508142  0.93937358    -0.43500
C849        C  0.59220057  0.07870224  0.96268106     0.00100
C850        C  0.61294569  0.10694938  0.96781588    -0.11800
C851        C  0.62818565  0.12243141  0.92929622     0.02300
C852        C  0.62246893  0.11054175  0.88382549     0.00000
C853        C  0.59920719  0.08528846  0.87761039    -0.11700
C854        C  0.58316062  0.07044865  0.91582345     0.02200
H855        H  0.61728649  0.11789201  0.00175197     0.15200
H856        H  0.59247603  0.07791277  0.84228326     0.15200
C857        C  0.55748694  0.04708605  0.90464689     0.36800
C858        C  0.64968674  0.15041051  0.93742572     0.36800
N859        N  0.53625050  0.02959620  0.89364804    -0.43500
N860        N  0.66689061  0.17286693  0.94391171    -0.43500
C861        C  0.59147846  0.07368825  0.55467196     0.00100
C862        C  0.56967963  0.08497865  0.59029443    -0.11800
C863        C  0.58086134  0.10301660  0.62863646     0.02300
C864        C  0.61513051  0.10683017  0.63627118     0.00000
C865        C  0.63753949  0.09111021  0.60580964    -0.11700
C866        C  0.62626337  0.07471535  0.56534244     0.02200
H867        H  0.54336392  0.08025844  0.58899534     0.15200
H868        H  0.66398661  0.09278162  0.61262202     0.15200
C869        C  0.65152618  0.06092164  0.53483890     0.36800
C870        C  0.55599165  0.11725801  0.65938938     0.36800
N871        N  0.67285998  0.05071651  0.51146565    -0.43500
N872        N  0.53505124  0.12858763  0.68238192    -0.43500
C873        C  0.37799933  0.11356556  0.89326730     0.00100
C874        C  0.41256171  0.11435486  0.89656773    -0.11800
C875        C  0.42988957  0.09626417  0.93066160     0.02300
C876        C  0.41235865  0.08045074  0.96812282     0.00000
C877        C  0.37704812  0.07890090  0.96299383    -0.11700
C878        C  0.36008932  0.09463262  0.92580910     0.03800
H879        H  0.42646623  0.12744571  0.86962527     0.15200
H880        H  0.36250178  0.06571942  0.98907302     0.15200
C881        C  0.32446376  0.09183528  0.92258381     0.36800
C882        C  0.46459712  0.09163627  0.92016711     0.36800
N883        N  0.29588161  0.08951669  0.91995795    -0.43500
N884        N  0.49213900  0.08885588  0.90898584    -0.43500
C885        C  0.41391248  0.08121516  0.55883875     0.00100
C886        C  0.39136120  0.10879419  0.55549830    -0.11800
C887        C  0.37546965  0.12271729  0.59484131     0.02300
C888        C  0.38274761  0.11064418  0.63987119     0.00000
C889        C  0.40771947  0.08645093  0.64469378    -0.11700
C890        C  0.42405136  0.07263076  0.60554297     0.02200
H891        H  0.38560848  0.12040712  0.52232229     0.15200
H892        H  0.41540483  0.07904233  0.67973459     0.15200
C893        C  0.45156031  0.05079536  0.61649800     0.36800
C894        C  0.35118129  0.14902518  0.58791830     0.36800
N895        N  0.47381145  0.03469399  0.62920182    -0.43500
N896        N  0.33160497  0.16999067  0.58241303    -0.43500
C897        C  0.46583003  0.06206680  0.51417390     0.00100
C898        C  0.48582331  0.09259486  0.01482125    -0.11800
C899        C  0.52105075  0.09262300  0.00973989     0.02300
C900        C  0.53790784  0.06211633  0.50569637     0.00000
C901        C  0.51875286  0.03316830  0.50130680    -0.11700
C902        C  0.48546294  0.03237864  0.51341372     0.02200
H903        H  0.47254128  0.11614122  0.01778353     0.15200
H904        H  0.52981346  0.00948697  0.49224011     0.15200
C905        C  0.47666241  0.00239448  0.53828369     0.36800
C906        C  0.53751530  0.12439027  0.01041217     0.36800
N907        N  0.47173342  0.97906983  0.56110369    -0.43500
N908        N  0.55044712  0.15001883  0.01118310    -0.43500
C909        C  0.41328897  0.89487913  0.96285169     0.00100
C910        C  0.42408908  0.90486115  0.91766053    -0.11800
C911        C  0.41211935  0.89105067  0.87625347     0.02300
C912        C  0.39070876  0.86369585  0.87815589     0.00000
C913        C  0.38384295  0.84965239  0.92207501    -0.11700
C914        C  0.39588590  0.86372690  0.96384575     0.02200
H915        H  0.44115863  0.92505096  0.91345279     0.15200
H916        H  0.36999275  0.82659351  0.92369259     0.15200
C917        C  0.39269084  0.84248165  0.00446269     0.36800
C918        C  0.42303960  0.90549444  0.83235384     0.36800
N919        N  0.38917097  0.82425611  0.03561951    -0.43500
N920        N  0.43166725  0.91746226  0.79744798    -0.43500
C921        C  0.41127174  0.90288488  0.55421456     0.00100
C922        C  0.43173264  0.90554316  0.59435765    -0.11800
C923        C  0.42299921  0.89134009  0.63731145     0.02300
C924        C  0.39162221  0.87638804  0.64292375     0.00000
C925        C  0.36811449  0.88094884  0.60702514    -0.11700
C926        C  0.37722902  0.89557426  0.56381154     0.02200
H927        H  0.45544015  0.91791532  0.59229815     0.15200
H928        H  0.34291797  0.87227311  0.61206210     0.15200
C929        C  0.35135840  0.90241629  0.52995461     0.36800
C930        C  0.44720165  0.89246633  0.67463330     0.36800
N931        N  0.33068510  0.90780410  0.50274633    -0.43500
N932        N  0.46688804  0.89338903  0.70411003    -0.43500
C933        C  0.41076282  0.95366517  0.50194656     0.00100
C934        C  0.39854721  0.97125043  0.54221433    -0.11800
C935        C  0.39735039  0.00633529  0.54437651     0.02300
C936        C  0.41410675  0.02523676  0.50949800     0.00000
C937        C  0.42093775  0.00917216  0.96685308    -0.11700
C938        C  0.41310588  0.97546162  0.96196624     0.02200
H939        H  0.39004096  0.95847974  0.57327188     0.15200
H940        H  0.42874443  0.02269205  0.93582195     0.15200
C941        C  0.39381689  0.96838245  0.92069563     0.36800
C942        C  0.37657405  0.02076348  0.58042704     0.36800
N943        N  0.37770595  0.96386671  0.88777732    -0.43500
N944        N  0.35892492  0.03125355  0.60908154    -0.43500
C945        C  0.61777557  0.85358628  0.61748867     0.00100
C946        C  0.60118689  0.83710643  0.58110691    -0.11800
C947        C  0.58959915  0.85432007  0.54120064     0.02300
C948        C  0.59279457  0.88970133  0.53775386     0.00000
C949        C  0.61421695  0.90446663  0.57126946    -0.11700
C950        C  0.62570723  0.88732723  0.61093788     0.02200
H951        H  0.59632602  0.81065144  0.58434434     0.15200
H952        H  0.62228096  0.92991724  0.56762133     0.15200
C953        C  0.64534714  0.90542301  0.64451680     0.36800
C954        C  0.57391592  0.83453821  0.50537522     0.36800
N955        N  0.66100851  0.91996510  0.67145139    -0.43500
N956        N  0.56150309  0.81801095  0.47732546    -0.43500
C957        C  0.58781697  0.89598085  0.94822439     0.00100
C958        C  0.56426925  0.88274801  0.91642903    -0.11800
C959        C  0.57318501  0.86883315  0.87333219     0.02300
C960        C  0.60695245  0.86501549  0.86096304     0.00000
C961        C  0.63101855  0.87627866  0.89262348    -0.11700
C962        C  0.62198885  0.89170148  0.93539112     0.02200
H963        H  0.53811019  0.88211257  0.92477450     0.15200
H964        H  0.65711320  0.87297922  0.88396459     0.15200
C965        C  0.64870569  0.90259275  0.96518573     0.36800
C966        C  0.54656590  0.85729392  0.84363445     0.36800
N967        N  0.67045281  0.91146416  0.98836146    -0.43500
N968        N  0.52506051  0.84840936  0.82001586    -0.43500
C969        C  0.53647978  0.91164911  0.49995196     0.00100
C970        C  0.51799440  0.88899146  0.52703683    -0.11800
C971        C  0.48318933  0.88694226  0.52339905     0.02300
C972        C  0.46397904  0.91382687  0.50374453     0.00000
C973        C  0.48296146  0.93746431  0.97723820    -0.11700
C974        C  0.51743640  0.93406497  0.97100522     0.02200
H975        H  0.53014989  0.87113667  0.54947955     0.15200
H976        H  0.47117083  0.95715648  0.95771510     0.15200
C977        C  0.53163834  0.95054868  0.93070934     0.36800
C978        C  0.46904089  0.85621673  0.54018481     0.36800
N979        N  0.54308596  0.96141270  0.89675844    -0.43500
N980        N  0.45962588  0.83100774  0.55453223    -0.43500
C981        C  0.58827978  0.02121452  0.50868594     0.00100
C982        C  0.57651712  0.00225338  0.54712036    -0.11800
C983        C  0.57308045  0.96762318  0.54464702     0.02300
C984        C  0.58475817  0.94945951  0.50468207     0.00000
C985        C  0.60249772  0.96762633  0.96849026    -0.11700
C986        C  0.60618897  0.00244758  0.97129888     0.02200
H987        H  0.56521193  0.01501097  0.57672751     0.15200
H988        H  0.61258208  0.95541937  0.93785767     0.15200
C989        C  0.62943743  0.01698359  0.93871765     0.36800
C990        C  0.55511345  0.95196774  0.58273610     0.36800
N991        N  0.64875128  0.02762124  0.91260946    -0.43500
N992        N  0.54062317  0.93969203  0.61327625    -0.43500
loop_ 
_geom_bond_atom_site_label_1 
_geom_bond_atom_site_label_2 
_geom_bond_distance 
_geom_bond_site_symmetry_2 
_ccdc_geom_bond_type 
C1          C461   1.582       .  S
C1          C948   1.583       .  S
C1          C969   1.586       .  S
C1          C984   1.580       .  S
C2          C425   1.573       .  S
C2          C437   1.612       .  S
C2          C476   1.599       .  S
C2          C909   1.586   1_554  S
C3          C380   1.587       .  S
C3          C885   1.585       .  S
C3          C897   1.583       .  S
C3          C936   1.575       .  S
C4          C365   1.574       .  S
C4          C404   1.594       .  S
C4          C485   1.581       .  S
C4          C849   1.568   1_554  S
C5          C320   1.573   1_556  S
C5          C329   1.583       .  S
C5          C344   1.573       .  S
C5          C801   1.584       .  S
C6          C269   1.575   1_556  S
C6          C293   1.593       .  S
C6          C332   1.579       .  S
C6          C780   1.574       .  S
C7          C245   1.583       .  S
C7          C260   1.612   1_554  S
C7          C296   1.618   1_554  S
C7          C732   1.573   1_554  S
C8          C221   1.580   1_556  S
C8          C257   1.593       .  S
C8          C341   1.571       .  S
C8          C705   1.578       .  S
In9          O11   2.228       .  S
In9          O12   2.295       .  S
In9          O20   2.266       .  S
In9          O14   2.228       .  S
In9          O16   2.256       .  S
In9          O17   2.259       .  S
In9          O18   2.223       .  S
In9          O21   2.247       .  S
C10          O16   1.263       .  A
C10          O18   1.257       .  A
C10         C200   1.480       .  S
O11          C19   1.257       .  A
O12          C19   1.263       .  A
C13          O20   1.262       .  A
C13          O14   1.258       .  A
C13         C185   1.487       .  S
C15          O17   1.265       .  A
C15          O21   1.258       .  A
C15         C449   1.491       .  S
C19         C464   1.494       .  S
In22         O24   2.283       .  S
In22         O25   2.217       .  S
In22         O33   2.259       .  S
In22         O27   2.235       .  S
In22         O29   2.241       .  S
In22         O30   2.243       .  S
In22         O31   2.240       .  S
In22         O34   2.245       .  S
C23          O29   1.257       .  A
C23          O31   1.261       .  A
C23         C197   1.482       .  S
O24          C32   1.265       .  A
O25          C32   1.257       .  A
C26          O33   1.261       .  A
C26          O27   1.259       .  A
C26         C173   1.486       .  S
C28          O30   1.262       .  A
C28          O34   1.260       .  A
C28         C416   1.481       .  S
C32         C428   1.489       .  S
In35         O37   2.211       .  S
In35         O38   2.277       .  S
In35         O46   2.266       .  S
In35         O40   2.222       .  S
In35         O42   2.260       .  S
In35         O43   2.279       .  S
In35         O44   2.205       .  S
In35         O47   2.209       .  S
C36          O42   1.265       .  A
C36          O44   1.260       .  A
C36         C161   1.474       .  S
O37          C45   1.260       .  A
O38          C45   1.266       .  A
C39          O46   1.266       .  A
C39          O40   1.260       .  A
C39         C149   1.489       .  S
C41          O43   1.268       .  A
C41          O47   1.259       .  A
C41         C272   1.480       .  S
C45         C281   1.490       .  S
In48         O50   2.234       .  S
In48         O51   2.234       .  S
In48         O59   2.262       .  S
In48         O53   2.223       .  S
In48         O55   2.270       .  S
In48         O56   2.237       .  S
In48         O57   2.203       .  S
In48         O60   2.243       .  S
C49          O55   1.263       .  A
C49          O57   1.256       .  A
C49         C164   1.472       .  S
O50          C58   1.262       .  A
O51          C58   1.262       .  A
C52          O59   1.262       .  A
C52          O53   1.260       .  A
C52         C188   1.487       .  S
C54          O56   1.259       .  A
C54          O60   1.259       .  A
C54         C308   1.469       .  S
C58         C317   1.486       .  S
In61         O63   2.212       .  S
In61         O64   2.275       .  S
In61         O72   2.268       .  S
In61         O66   2.210       .  S
In61         O68   2.265       .  S
In61         O69   2.250       .  S
In61         O70   2.186       .  S
In61         O73   2.233       .  S
C62          O68   1.266       .  A
C62          O70   1.256       .  A
C62         C140   1.476       .  S
O63          C71   1.259       .  A
O64          C71   1.267       .  A
C65          O72   1.267       .  A
C65          O66   1.261       .  A
C65         C125   1.490       .  S
C67          O69   1.265       .  A
C67          O73   1.260       .  A
C67         C392   1.477       .  S
C71         C377   1.476       .  S
In74         O76   2.222       .  S
In74         O77   2.272       .  S
In74         O85   2.255       .  S
In74         O79   2.227       .  S
In74         O81   2.276       .  S
In74         O82   2.232       .  S
In74         O83   2.177       .  S
In74         O86   2.241       .  S
C75          O81   1.267       .  A
C75          O83   1.257       .  A
C75         C137   1.478       .  S
O76          C84   1.258       .  A
O77          C84   1.264       .  A
C78          O85   1.264       .  A
C78          O79   1.260       .  A
C78         C152   1.489       .  S
C80          O82   1.264       .  A
C80          O86   1.261       .  A
C80         C356   1.475       .  S
C84         C368   1.476       .  S
In87         O89   2.253       .  S
In87         O90   2.248       .  S
In87         O98   2.278       .  S
In87         O92   2.229       .  S
In87         O94   2.241       .  S
In87         O95   2.288       .  S
In87         O96   2.253       .  S
In87         O99   2.218       .  S
C88          O94   1.258       .  A
C88          O96   1.260       .  A
C88         C113   1.479       .  S
O89          C97   1.262       .  A
O90          C97   1.261       .  A
C91          O98   1.262       .  A
C91          O92   1.256       .  A
C91         C128   1.490       .  S
C93          O95   1.265       .  A
C93          O99   1.257       .  A
C93         C233   1.491       .  S
C97         C248   1.492       .  S
In100       O102   2.249       .  S
In100       O103   2.262       .  S
In100       O111   2.267       .  S
In100       O105   2.241       .  S
In100       O107   2.270       .  S
In100       O108   2.247       .  S
In100       O109   2.223       .  S
In100       O112   2.254       .  S
C101        O107   1.262       .  A
C101        O109   1.254       .  A
C101        C116   1.478       .  S
O102        C110   1.259       .  A
O103        C110   1.264       .  A
C104        O111   1.262       .  A
C104        O105   1.258       .  A
C104        C176   1.486       .  S
C106        O108   1.262       .  A
C106        O112   1.262       .  A
C106        C224   1.486       .  S
C110        C212   1.494       .  S
C113        C114   1.403       .  A
C113        C118   1.413       .  A
C114        C115   1.398       .  A
C114        H119   1.084       .  S
C115        C116   1.415       .  A
C115        C122   1.446       .  S
C116        C117   1.403       .  A
C117        C118   1.400       .  A
C117        H120   1.085       .  S
C118        C121   1.443       .  S
C121        N123   1.157       .  T
C122        N124   1.158       .  T
C125        C126   1.405       .  A
C125        C130   1.415       .  A
C126        C127   1.396       .  A
C126        H131   1.085       .  S
C127        C128   1.416       .  A
C127        C134   1.445       .  S
C128        C129   1.407       .  A
C129        C130   1.408       .  A
C129        H132   1.084       .  S
C130        C133   1.443       .  S
C133        N135   1.157       .  T
C134        N136   1.157       .  T
C137        C138   1.403       .  A
C137        C142   1.412       .  A
C138        C139   1.385       .  A
C138        H143   1.086       .  S
C139        C140   1.415       .  A
C139        C146   1.447       .  S
C140        C141   1.407       .  A
C141        C142   1.405       .  A
C141        H144   1.084       .  S
C142        C145   1.443       .  S
C145        N147   1.157       .  T
C146        N148   1.158       .  T
C149        C150   1.406       .  A
C149        C154   1.414       .  A
C150        C151   1.399       .  A
C150        H155   1.085       .  S
C151        C152   1.415       .  A
C151        C158   1.445       .  S
C152        C153   1.407       .  A
C153        C154   1.405       .  A
C153        H156   1.084       .  S
C154        C157   1.443       .  S
C157        N159   1.157       .  T
C158        N160   1.158       .  T
C161        C162   1.402       .  A
C161        C166   1.413       .  A
C162        C163   1.390       .  A
C162        H167   1.085       .  S
C163        C164   1.411       .  A
C163        C170   1.445       .  S
C164        C165   1.403       .  A
C165        C166   1.405       .  A
C165        H168   1.084       .  S
C166        C169   1.443       .  S
C169        N171   1.157       .  T
C170        N172   1.156       .  T
C173        C174   1.404       .  A
C173        C178   1.415       .  A
C174        C175   1.399       .  A
C174        H179   1.085       .  S
C175        C176   1.415       .  A
C175        C182   1.444       .  S
C176        C177   1.406       .  A
C177        C178   1.404       .  A
C177        H180   1.085       .  S
C178        C181   1.444       .  S
C181        N183   1.157       .  T
C182        N184   1.157       .  T
C185        C186   1.406       .  A
C185        C190   1.414       .  A
C186        C187   1.405       .  A
C186        H191   1.085       .  S
C187        C188   1.416       .  A
C187        C194   1.444       .  S
C188        C189   1.404       .  A
C189        C190   1.396       .  A
C189        H192   1.085       .  S
C190        C193   1.445       .  S
C193        N195   1.157       .  T
C194        N196   1.157       .  T
C197        C198   1.403       .  A
C197        C202   1.417       .  A
C198        C199   1.397       .  A
C198        H203   1.085       .  S
C199        C200   1.414       .  A
C199        C206   1.445       .  S
C200        C201   1.404       .  A
C201        C202   1.400       .  A
C201        H204   1.085       .  S
C202        C205   1.445       .  S
C205        N207   1.158       .  T
C206        N208   1.157       .  T
C209        C504   1.583       .  S
C209        C210   1.421       .  A
C209        C214   1.438       .  A
C210        C211   1.403       .  A
C210        H215   1.085       .  S
C211        C212   1.409       .  A
C211        C218   1.444       .  S
C212        C213   1.398       .  A
C213        C214   1.406       .  A
C213        H216   1.086       .  S
C214        C217   1.439       .  S
C217        N219   1.157       .  T
C218        N220   1.157       .  T
C221        C222   1.424       .  A
C221        C226   1.431       .  A
C222        C223   1.404       .  A
C222        H227   1.080       .  S
C223        C224   1.405       .  A
C223        C230   1.444       .  S
C224        C225   1.397       .  A
C225        C226   1.400       .  A
C225        H228   1.085       .  S
C226        C229   1.438       .  S
C229        N231   1.156       .  T
C230        N232   1.157       .  T
C233        C234   1.405       .  A
C233        C238   1.412       .  A
C234        C235   1.412       .  A
C234        H239   1.084       .  S
C235        C236   1.428       .  A
C235        C242   1.443       .  S
C236        C503   1.572       .  S
C236        C237   1.412       .  A
C237        C238   1.391       .  A
C237        H240   1.082       .  S
C238        C241   1.443       .  S
C241        N243   1.156       .  T
C242        N244   1.157       .  T
C245        C246   1.422       .  A
C245        C250   1.432       .  A
C246        C247   1.402       .  A
C246        H251   1.079       .  S
C247        C248   1.410       .  A
C247        C254   1.445       .  S
C248        C249   1.402       .  A
C249        C250   1.403       .  A
C249        H252   1.085       .  S
C250        C253   1.444       .  S
C253        N255   1.155       .  T
C254        N256   1.157       .  T
C257        C258   1.410   1_556  A
C257        C758   1.430       .  A
C258        C259   1.420       .  A
C258        H263   1.082       .  S
C259        C260   1.444   1_554  A
C259        C266   1.443       .  S
C260        C757   1.405       .  A
C261        C262   1.401       .  A
C261        C756   1.408       .  A
C261        H264   1.063       .  S
C262        C753   1.429       .  A
C262        C265   1.444       .  S
C265        N267   1.157       .  T
C266        N268   1.158       .  T
C269        C270   1.426       .  A
C269        C274   1.437       .  A
C270        C271   1.407       .  A
C270        H275   1.084       .  S
C271        C272   1.401       .  A
C271        C278   1.442       .  S
C272        C273   1.397       .  A
C273        C274   1.397       .  A
C273        H276   1.087       .  S
C274        C277   1.444       .  S
C277        N279   1.158       .  T
C278        N280   1.157       .  T
C281        C282   1.399       .  A
C281        C286   1.408       .  A
C282        C283   1.397       .  A
C282        H287   1.085       .  S
C283        C284   1.428       .  A
C283        C290   1.441       .  S
C284        C502   1.572       .  S
C284        C285   1.423       .  A
C285        C286   1.408       .  A
C285        H288   1.080       .  S
C286        C289   1.443       .  S
C289        N291   1.157       .  T
C290        N292   1.157       .  T
C293        C298   1.426   1_556  A
C293        C790   1.410       .  A
C294        C295   1.414   1_655  A
C294        C789   1.412       .  A
C294        H299   1.084       .  S
C295        C792   1.437       .  A
C295        C302   1.442       .  S
C296        C297   1.423   1_556  A
C296        C791   1.437       .  A
C297        C298   1.408   1_455  A
C297        H300   1.074       .  S
C298        C301   1.445       .  S
C301        N303   1.158       .  T
C302        N304   1.158       .  T
C305        C501   1.584       .  S
C305        C306   1.429       .  A
C305        C310   1.432       .  A
C306        C307   1.399       .  A
C306        H311   1.079       .  S
C307        C308   1.396       .  A
C307        C314   1.444       .  S
C308        C309   1.392       .  A
C309        C310   1.400       .  A
C309        H312   1.086       .  S
C310        C313   1.437       .  S
C313        N315   1.157       .  T
C314        N316   1.157       .  T
C317        C318   1.400       .  A
C317        C322   1.412       .  A
C318        C319   1.398       .  A
C318        H323   1.085       .  S
C319        C320   1.432       .  A
C319        C326   1.447       .  S
C320        C321   1.416       .  A
C321        C322   1.401       .  A
C321        H324   1.076       .  S
C322        C325   1.445       .  S
C325        N327   1.157       .  T
C326        N328   1.157   1_554  T
C329        C334   1.433   1_556  A
C329        C826   1.413       .  A
C330        C331   1.418       .  A
C330        C825   1.414       .  A
C330        H335   1.080       .  S
C331        C828   1.435       .  A
C331        C338   1.443       .  S
C332        C333   1.408   1_556  A
C332        C827   1.436       .  A
C333        C334   1.397       .  A
C333        H336   1.083       .  S
C334        C337   1.445       .  S
C337        N339   1.157       .  T
C338        N340   1.158       .  T
C341        C346   1.426       .  A
C341        C838   1.400   1_556  A
C342        C343   1.358   1_455  A
C342        C837   1.401       .  A
C342        H347   1.078       .  S
C343        C840   1.418       .  A
C343        C350   1.439       .  S
C344        C345   1.423       .  A
C344        C839   1.417       .  A
C345        C346   1.425   1_655  A
C345        H348   1.084       .  S
C346        C349   1.442       .  S
C349        N351   1.157       .  T
C350        N352   1.154       .  T
C353        C500   1.568       .  S
C353        C354   1.422       .  A
C353        C358   1.426       .  A
C354        C355   1.402       .  A
C354        H359   1.079       .  S
C355        C356   1.403       .  A
C355        C362   1.444       .  S
C356        C357   1.398       .  A
C357        C358   1.398       .  A
C357        H360   1.086       .  S
C358        C361   1.439       .  S
C361        N363   1.156       .  T
C362        N364   1.157       .  T
C365        C366   1.412       .  A
C365        C370   1.434       .  A
C366        C367   1.390       .  A
C366        H371   1.079       .  S
C367        C368   1.406       .  A
C367        C374   1.442       .  S
C368        C369   1.397       .  A
C369        C370   1.409       .  A
C369        H372   1.085       .  S
C370        C373   1.443       .  S
C373        N375   1.157       .  T
C374        N376   1.156       .  T
C377        C378   1.393       .  A
C377        C382   1.399       .  A
C378        C379   1.395       .  A
C378        H383   1.086       .  S
C379        C380   1.431       .  A
C379        C386   1.437       .  S
C380        C381   1.432       .  A
C381        C382   1.409       .  A
C381        H384   1.084       .  S
C382        C385   1.442       .  S
C385        N387   1.157       .  T
C386        N388   1.156       .  T
C389        C499   1.584       .  S
C389        C390   1.427       .  A
C389        C394   1.431       .  A
C390        C391   1.401       .  A
C390        H395   1.078       .  S
C391        C392   1.400       .  A
C391        C398   1.445       .  S
C392        C393   1.398       .  A
C393        C394   1.406       .  A
C393        H396   1.086       .  S
C394        C397   1.439       .  S
C397        N399   1.157       .  T
C398        N400   1.157       .  T
C401        C499   1.582       .  S
C401        C406   1.423       .  A
C401        C898   1.419       .  A
C402        C403   1.425       .  A
C402        C897   1.419       .  A
C402        H407   1.084       .  S
C403        C900   1.433       .  A
C403        C410   1.443       .  S
C404        C405   1.407       .  A
C404        C899   1.432       .  A
C405        C406   1.384       .  A
C405        H408   1.077   1_554  S
C406        C409   1.441       .  S
C409        N411   1.157   1_545  T
C410        N412   1.157       .  T
C413        C498   1.587       .  S
C413        C414   1.417       .  A
C413        C418   1.439       .  A
C414        C415   1.395       .  A
C414        H419   1.074       .  S
C415        C416   1.402       .  A
C415        C422   1.446       .  S
C416        C417   1.398       .  A
C417        C418   1.408       .  A
C417        H420   1.086       .  S
C418        C421   1.441       .  S
C421        N423   1.158       .  T
C422        N424   1.157       .  T
C425        C426   1.416       .  A
C425        C430   1.428       .  A
C426        C427   1.393       .  A
C426        H431   1.081       .  S
C427        C428   1.412       .  A
C427        C434   1.445       .  S
C428        C429   1.406       .  A
C429        C430   1.410       .  A
C429        H432   1.084       .  S
C430        C433   1.445       .  S
C433        N435   1.157       .  T
C434        N436   1.157       .  T
C437        C438   1.431       .  A
C437        C938   1.420   1_554  A
C438        C439   1.409   1_565  A
C438        H443   1.078       .  S
C439        C440   1.420       .  A
C439        C446   1.441       .  S
C440        C499   1.574       .  S
C440        C937   1.416   1_554  A
C441        C442   1.399   1_545  A
C441        C936   1.416       .  A
C441        H444   1.083       .  S
C442        C933   1.421       .  A
C442        C445   1.441       .  S
C445        N447   1.158       .  T
C446        N448   1.158       .  T
C449        C450   1.406       .  A
C449        C454   1.404       .  A
C450        C451   1.409       .  A
C450        H455   1.085       .  S
C451        C452   1.428       .  A
C451        C458   1.445       .  S
C452        C497   1.584   1_554  S
C452        C453   1.424       .  A
C453        C454   1.398       .  A
C453        H456   1.079       .  S
C454        C457   1.445       .  S
C457        N459   1.157       .  T
C458        N460   1.158   1_554  T
C461        C462   1.420       .  A
C461        C466   1.430       .  A
C462        C463   1.393       .  A
C462        H467   1.078       .  S
C463        C464   1.409       .  A
C463        C470   1.447       .  S
C464        C465   1.406       .  A
C465        C466   1.414       .  A
C465        H468   1.084       .  S
C466        C469   1.444       .  S
C469        N471   1.157       .  T
C470        N472   1.157       .  T
C473        C497   1.587       .  S
C473        C474   1.408   1_556  A
C473        C974   1.426       .  A
C474        C475   1.409       .  A
C474        H479   1.074       .  S
C475        C476   1.435       .  A
C475        C482   1.443       .  S
C476        C973   1.415   1_554  A
C477        C478   1.403       .  A
C477        C972   1.416       .  A
C477        H480   1.072       .  S
C478        C969   1.425       .  A
C478        C481   1.443       .  S
C481        N483   1.156       .  T
C482        N484   1.157       .  T
C485        C486   1.414       .  A
C485        C986   1.426   1_554  A
C486        C487   1.397   1_545  A
C486        H491   1.084       .  S
C487        C488   1.428       .  A
C487        C494   1.448       .  S
C488        C497   1.578   1_554  S
C488        C985   1.414   1_554  A
C489        C490   1.409   1_565  A
C489        C984   1.413       .  A
C489        H492   1.078       .  S
C490        C981   1.427       .  A
C490        C493   1.442       .  S
C493        N495   1.158       .  T
C494        N496   1.157       .  T
C497        C957   1.582       .  S
C498        C921   1.575       .  S
C498        C933   1.613       .  S
C498        C972   1.598       .  S
C499        C876   1.583   1_554  S
C500        C861   1.575       .  S
C500        C900   1.594       .  S
C500        C981   1.583       .  S
C501        C816   1.574       .  S
C501        C825   1.581       .  S
C501        C840   1.573       .  S
C502        C765   1.579       .  S
C502        C789   1.591       .  S
C502        C828   1.577       .  S
C503        C741   1.584       .  S
C503        C756   1.612       .  S
C503        C792   1.616       .  S
C504        C717   1.581       .  S
C504        C753   1.592       .  S
C504        C837   1.573       .  S
In505       O507   2.233       .  S
In505       O508   2.287       .  S
In505       O516   2.262       .  S
In505       O510   2.232       .  S
In505       O512   2.245       .  S
In505       O513   2.254       .  S
In505       O514   2.226       .  S
In505       O517   2.248       .  S
C506        O512   1.261       .  A
C506        O514   1.258       .  A
C506        C696   1.479       .  S
O507        C515   1.258       .  A
O508        C515   1.263       .  A
C509        O516   1.261       .  A
C509        O510   1.256       .  A
C509        C681   1.486       .  S
C511        O513   1.264       .  A
C511        O517   1.259       .  A
C511        C945   1.492       .  S
C515        C960   1.493       .  S
In518       O520   2.291       .  S
In518       O521   2.219       .  S
In518       O529   2.260       .  S
In518       O523   2.228       .  S
In518       O525   2.238       .  S
In518       O526   2.240       .  S
In518       O527   2.241       .  S
In518       O530   2.245       .  S
C519        O525   1.257       .  A
C519        O527   1.261       .  A
C519        C693   1.480       .  S
O520        C528   1.265       .  A
O521        C528   1.257       .  A
C522        O529   1.262       .  A
C522        O523   1.259       .  A
C522        C669   1.484       .  S
C524        O526   1.261       .  A
C524        O530   1.259       .  A
C524        C912   1.482       .  S
C528        C924   1.491       .  S
In531       O533   2.213       .  S
In531       O534   2.277       .  S
In531       O542   2.265       .  S
In531       O536   2.231       .  S
In531       O538   2.269       .  S
In531       O539   2.286       .  S
In531       O540   2.196       .  S
In531       O543   2.212       .  S
C532        O538   1.267       .  A
C532        O540   1.260       .  A
C532        C657   1.478       .  S
O533        C541   1.261       .  A
O534        C541   1.267       .  A
C535        O542   1.265       .  A
C535        O536   1.262       .  A
C535        C645   1.493       .  S
C537        O539   1.268       .  A
C537        O543   1.259       .  A
C537        C768   1.484       .  S
C541        C777   1.491       .  S
In544       O546   2.226       .  S
In544       O547   2.245       .  S
In544       O555   2.265       .  S
In544       O549   2.213       .  S
In544       O551   2.267       .  S
In544       O552   2.238       .  S
In544       O553   2.199       .  S
In544       O556   2.243       .  S
C545        O551   1.264       .  A
C545        O553   1.256       .  A
C545        C660   1.471       .  S
O546        C554   1.261       .  A
O547        C554   1.264       .  A
C548        O555   1.264       .  A
C548        O549   1.260       .  A
C548        C684   1.486       .  S
C550        O552   1.261       .  A
C550        O556   1.260       .  A
C550        C804   1.472       .  S
C554        C813   1.485       .  S
In557       O559   2.213       .  S
In557       O560   2.270       .  S
In557       O568   2.264       .  S
In557       O562   2.209       .  S
In557       O564   2.266       .  S
In557       O565   2.250       .  S
In557       O566   2.189       .  S
In557       O569   2.237       .  S
C558        O564   1.267       .  A
C558        O566   1.256       .  A
C558        C636   1.477       .  S
O559        C567   1.259       .  A
O560        C567   1.267       .  A
C561        O568   1.266       .  A
C561        O562   1.262       .  A
C561        C621   1.489       .  S
C563        O565   1.266       .  A
C563        O569   1.261       .  A
C563        C888   1.480       .  S
C567        C873   1.475       .  S
In570       O572   2.224       .  S
In570       O573   2.265       .  S
In570       O581   2.265       .  S
In570       O575   2.231       .  S
In570       O577   2.273       .  S
In570       O578   2.233       .  S
In570       O579   2.185       .  S
In570       O582   2.241       .  S
C571        O577   1.267       .  A
C571        O579   1.257       .  A
C571        C633   1.479       .  S
O572        C580   1.259       .  A
O573        C580   1.264       .  A
C574        O581   1.264       .  A
C574        O575   1.261       .  A
C574        C648   1.492       .  S
C576        O578   1.264       .  A
C576        O582   1.261       .  A
C576        C852   1.475       .  S
C580        C864   1.475       .  S
In583       O585   2.257       .  S
In583       O586   2.253       .  S
In583       O594   2.279       .  S
In583       O588   2.222       .  S
In583       O590   2.247       .  S
In583       O591   2.284       .  S
In583       O592   2.243       .  S
In583       O595   2.222       .  S
C584        O590   1.258       .  A
C584        O592   1.259       .  A
C584        C609   1.475       .  S
O585        C593   1.262       .  A
O586        C593   1.261       .  A
C587        O594   1.263       .  A
C587        O588   1.256       .  A
C587        C624   1.490       .  S
C589        O591   1.266       .  A
C589        O595   1.258       .  A
C589        C729   1.492       .  S
C593        C744   1.494       .  S
In596       O598   2.245       .  S
In596       O599   2.261       .  S
In596       O607   2.267       .  S
In596       O601   2.239       .  S
In596       O603   2.272       .  S
In596       O604   2.253       .  S
In596       O605   2.214       .  S
In596       O608   2.255       .  S
C597        O603   1.262       .  A
C597        O605   1.253       .  A
C597        C612   1.476       .  S
O598        C606   1.259       .  A
O599        C606   1.264       .  A
C600        O607   1.262       .  A
C600        O601   1.258       .  A
C600        C672   1.486       .  S
C602        O604   1.263       .  A
C602        O608   1.262       .  A
C602        C720   1.487       .  S
C606        C708   1.492       .  S
C609        C610   1.401       .  A
C609        C614   1.412       .  A
C610        C611   1.394       .  A
C610        H615   1.084       .  S
C611        C612   1.415       .  A
C611        C618   1.446       .  S
C612        C613   1.404       .  A
C613        C614   1.401       .  A
C613        H616   1.085       .  S
C614        C617   1.443       .  S
C617        N619   1.157       .  T
C618        N620   1.157       .  T
C621        C622   1.404       .  A
C621        C626   1.415       .  A
C622        C623   1.395       .  A
C622        H627   1.085       .  S
C623        C624   1.417       .  A
C623        C630   1.445       .  S
C624        C625   1.408       .  A
C625        C626   1.407       .  A
C625        H628   1.084       .  S
C626        C629   1.443       .  S
C629        N631   1.157       .  T
C630        N632   1.157       .  T
C633        C634   1.404       .  A
C633        C638   1.412       .  A
C634        C635   1.387       .  A
C634        H639   1.085       .  S
C635        C636   1.415       .  A
C635        C642   1.447       .  S
C636        C637   1.406       .  A
C637        C638   1.405       .  A
C637        H640   1.084       .  S
C638        C641   1.442       .  S
C641        N643   1.157       .  T
C642        N644   1.158       .  T
C645        C646   1.406       .  A
C645        C650   1.416       .  A
C646        C647   1.400       .  A
C646        H651   1.085       .  S
C647        C648   1.415       .  A
C647        C654   1.445       .  S
C648        C649   1.407       .  A
C649        C650   1.407       .  A
C649        H652   1.084       .  S
C650        C653   1.443       .  S
C653        N655   1.157       .  T
C654        N656   1.157       .  T
C657        C658   1.403       .  A
C657        C662   1.414       .  A
C658        C659   1.389       .  A
C658        H663   1.085       .  S
C659        C660   1.411       .  A
C659        C666   1.446       .  S
C660        C661   1.404       .  A
C661        C662   1.406       .  A
C661        H664   1.085       .  S
C662        C665   1.443       .  S
C665        N667   1.157       .  T
C666        N668   1.157       .  T
C669        C670   1.403       .  A
C669        C674   1.414       .  A
C670        C671   1.398       .  A
C670        H675   1.085       .  S
C671        C672   1.415       .  A
C671        C678   1.444       .  S
C672        C673   1.406       .  A
C673        C674   1.405       .  A
C673        H676   1.085       .  S
C674        C677   1.444       .  S
C677        N679   1.157       .  T
C678        N680   1.157       .  T
C681        C682   1.407       .  A
C681        C686   1.415       .  A
C682        C683   1.404       .  A
C682        H687   1.085       .  S
C683        C684   1.414       .  A
C683        C690   1.443       .  S
C684        C685   1.404       .  A
C685        C686   1.396       .  A
C685        H688   1.085       .  S
C686        C689   1.445       .  S
C689        N691   1.157       .  T
C690        N692   1.157       .  T
C693        C694   1.404       .  A
C693        C698   1.417       .  A
C694        C695   1.397       .  A
C694        H699   1.085       .  S
C695        C696   1.414       .  A
C695        C702   1.445       .  S
C696        C697   1.403       .  A
C697        C698   1.398       .  A
C697        H700   1.085       .  S
C698        C701   1.445       .  S
C701        N703   1.158       .  T
C702        N704   1.157       .  T
C705        C706   1.420       .  A
C705        C710   1.436       .  A
C706        C707   1.400       .  A
C706        H711   1.085       .  S
C707        C708   1.409       .  A
C707        C714   1.444       .  S
C708        C709   1.399       .  A
C709        C710   1.406       .  A
C709        H712   1.086       .  S
C710        C713   1.441       .  S
C713        N715   1.158       .  T
C714        N716   1.157       .  T
C717        C718   1.423       .  A
C717        C722   1.432       .  A
C718        C719   1.404       .  A
C718        H723   1.079       .  S
C719        C720   1.406       .  A
C719        C726   1.444       .  S
C720        C721   1.398       .  A
C721        C722   1.402       .  A
C721        H724   1.085       .  S
C722        C725   1.439       .  S
C725        N727   1.156       .  T
C726        N728   1.157       .  T
C729        C730   1.404       .  A
C729        C734   1.413       .  A
C730        C731   1.411       .  A
C730        H735   1.084       .  S
C731        C732   1.430       .  A
C731        C738   1.444       .  S
C732        C733   1.413       .  A
C733        C734   1.394       .  A
C733        H736   1.082       .  S
C734        C737   1.443       .  S
C737        N739   1.156       .  T
C738        N740   1.157       .  T
C741        C742   1.421       .  A
C741        C746   1.434       .  A
C742        C743   1.403       .  A
C742        H747   1.079       .  S
C743        C744   1.411       .  A
C743        C750   1.445       .  S
C744        C745   1.402       .  A
C745        C746   1.404       .  A
C745        H748   1.085       .  S
C746        C749   1.444       .  S
C749        N751   1.156       .  T
C750        N752   1.157       .  T
C753        C754   1.409       .  A
C754        C755   1.419       .  A
C754        H759   1.081       .  S
C755        C756   1.444       .  A
C755        C762   1.443       .  S
C757        C758   1.401       .  A
C757        H760   1.062       .  S
C758        C761   1.443       .  S
C761        N763   1.157       .  T
C762        N764   1.158       .  T
C765        C766   1.426       .  A
C765        C770   1.439       .  A
C766        C767   1.410       .  A
C766        H771   1.084       .  S
C767        C768   1.403       .  A
C767        C774   1.442       .  S
C768        C769   1.396       .  A
C769        C770   1.398       .  A
C769        H772   1.087       .  S
C770        C773   1.444       .  S
C773        N775   1.158       .  T
C774        N776   1.157       .  T
C777        C778   1.399       .  A
C777        C782   1.408       .  A
C778        C779   1.398       .  A
C778        H783   1.085       .  S
C779        C780   1.429       .  A
C779        C786   1.441       .  S
C780        C781   1.423       .  A
C781        C782   1.408       .  A
C781        H784   1.080       .  S
C782        C785   1.443       .  S
C785        N787   1.157       .  T
C786        N788   1.157       .  T
C789        C794   1.425       .  A
C790        C791   1.414   1_655  A
C790        H795   1.084       .  S
C791        C798   1.442       .  S
C792        C793   1.422       .  A
C793        C794   1.406   1_455  A
C793        H796   1.075       .  S
C794        C797   1.445       .  S
C797        N799   1.158       .  T
C798        N800   1.158       .  T
C801        C802   1.430       .  A
C801        C806   1.433       .  A
C802        C803   1.401       .  A
C802        H807   1.079       .  S
C803        C804   1.397       .  A
C803        C810   1.444       .  S
C804        C805   1.392       .  A
C805        C806   1.400       .  A
C805        H808   1.087       .  S
C806        C809   1.436       .  S
C809        N811   1.157       .  T
C810        N812   1.157       .  T
C813        C814   1.400       .  A
C813        C818   1.410       .  A
C814        C815   1.397       .  A
C814        H819   1.085       .  S
C815        C816   1.432       .  A
C815        C822   1.447       .  S
C816        C817   1.417       .  A
C817        C818   1.401       .  A
C817        H820   1.075       .  S
C818        C821   1.445       .  S
C821        N823   1.157       .  T
C822        N824   1.158       .  T
C825        C830   1.432       .  A
C826        C827   1.418       .  A
C826        H831   1.080       .  S
C827        C834   1.443       .  S
C828        C829   1.406       .  A
C829        C830   1.394       .  A
C829        H832   1.083       .  S
C830        C833   1.445       .  S
C833        N835   1.157       .  T
C834        N836   1.158       .  T
C837        C842   1.425       .  A
C838        C839   1.357   1_454  A
C838        H843   1.079       .  S
C839        C846   1.435       .  S
C840        C841   1.422       .  A
C841        C842   1.425   1_655  A
C841        H844   1.084       .  S
C842        C845   1.442       .  S
C845        N847   1.157       .  T
C846        N848   1.153       .  T
C849        C850   1.422       .  A
C849        C854   1.426       .  A
C850        C851   1.402       .  A
C850        H855   1.079   1_556  S
C851        C852   1.402       .  A
C851        C858   1.444       .  S
C852        C853   1.398       .  A
C853        C854   1.399       .  A
C853        H856   1.086       .  S
C854        C857   1.439       .  S
C857        N859   1.156       .  T
C858        N860   1.157       .  T
C861        C862   1.412       .  A
C861        C866   1.434       .  A
C862        C863   1.391       .  A
C862        H867   1.078       .  S
C863        C864   1.406       .  A
C863        C870   1.442       .  S
C864        C865   1.397       .  A
C865        C866   1.408       .  A
C865        H868   1.085       .  S
C866        C869   1.442       .  S
C869        N871   1.157       .  T
C870        N872   1.156       .  T
C873        C874   1.395       .  A
C873        C878   1.400       .  A
C874        C875   1.395       .  A
C874        H879   1.086       .  S
C875        C876   1.428       .  A
C875        C882   1.437       .  S
C876        C877   1.431       .  A
C877        C878   1.407       .  A
C877        H880   1.084       .  S
C878        C881   1.442       .  S
C881        N883   1.157       .  T
C882        N884   1.156       .  T
C885        C886   1.427       .  A
C885        C890   1.433       .  A
C886        C887   1.403       .  A
C886        H891   1.078       .  S
C887        C888   1.401       .  A
C887        C894   1.445       .  S
C888        C889   1.397       .  A
C889        C890   1.405       .  A
C889        H892   1.086       .  S
C890        C893   1.439       .  S
C893        N895   1.157       .  T
C894        N896   1.157       .  T
C897        C902   1.423       .  A
C898        C899   1.424       .  A
C898        H903   1.084       .  S
C899        C906   1.442       .  S
C900        C901   1.406       .  A
C901        C902   1.383       .  A
C901        H904   1.077       .  S
C902        C905   1.441       .  S
C905        N907   1.157   1_545  T
C906        N908   1.157       .  T
C909        C910   1.416       .  A
C909        C914   1.439       .  A
C910        C911   1.394       .  A
C910        H915   1.073       .  S
C911        C912   1.403       .  A
C911        C918   1.446       .  S
C912        C913   1.399       .  A
C913        C914   1.408       .  A
C913        H916   1.086       .  S
C914        C917   1.442   1_556  S
C917        N919   1.158       .  T
C918        N920   1.157       .  T
C921        C922   1.416       .  A
C921        C926   1.429       .  A
C922        C923   1.394       .  A
C922        H927   1.081       .  S
C923        C924   1.411       .  A
C923        C930   1.445       .  S
C924        C925   1.406       .  A
C925        C926   1.412       .  A
C925        H928   1.084       .  S
C926        C929   1.445       .  S
C929        N931   1.157       .  T
C930        N932   1.157       .  T
C933        C934   1.432       .  A
C934        C935   1.409   1_565  A
C934        H939   1.078       .  S
C935        C936   1.421       .  A
C935        C942   1.441       .  S
C937        C938   1.399   1_545  A
C937        H940   1.083       .  S
C938        C941   1.442       .  S
C941        N943   1.158       .  T
C942        N944   1.158       .  T
C945        C946   1.405       .  A
C945        C950   1.406       .  A
C946        C947   1.407       .  A
C946        H951   1.085       .  S
C947        C948   1.430       .  A
C947        C954   1.445       .  S
C948        C949   1.423       .  A
C949        C950   1.399       .  A
C949        H952   1.079       .  S
C950        C953   1.445       .  S
C953        N955   1.157       .  T
C954        N956   1.158       .  T
C957        C958   1.421       .  A
C957        C962   1.430       .  A
C958        C959   1.395       .  A
C958        H963   1.079       .  S
C959        C960   1.409       .  A
C959        C966   1.447       .  S
C960        C961   1.404       .  A
C961        C962   1.413       .  A
C961        H964   1.084       .  S
C962        C965   1.444       .  S
C965        N967   1.157       .  T
C966        N968   1.157       .  T
C969        C970   1.407       .  A
C970        C971   1.408       .  A
C970        H975   1.074       .  S
C971        C972   1.434       .  A
C971        C978   1.443       .  S
C973        C974   1.403       .  A
C973        H976   1.073       .  S
C974        C977   1.443       .  S
C977        N979   1.156       .  T
C978        N980   1.157       .  T
C981        C982   1.415       .  A
C982        C983   1.400   1_545  A
C982        H987   1.084       .  S
C983        C984   1.429       .  A
C983        C990   1.447       .  S
C985        C986   1.409   1_565  A
C985        H988   1.078       .  S
C986        C989   1.442       .  S
C989        N991   1.158       .  T
C990        N992   1.158       .  T
