geometry optimzed in LAMMPS
_audit_creation_date              2020-11-30 
_audit_creation_method            'lammps2cif' 
_symmetry_space_group_name_H-M    'P1' 
_symmetry_Int_Tables_number       1 
_symmetry_cell_setting            triclinic 
loop_ 
_symmetry_equiv_pos_as_xyz 
  x,y,z 
_cell_length_a                    34.64871058 
_cell_length_b                    34.68521745466719 
_cell_length_c                    34.84416317258659 
_cell_angle_alpha                 89.88572764383179 
_cell_angle_beta                  90.75074846427252 
_cell_angle_gamma                 89.75371255234721 
loop_ 
_atom_site_label 
_atom_site_type_symbol 
_atom_site_fract_x 
_atom_site_fract_y 
_atom_site_fract_z 
_atom_site_charge 
C1          C  0.75809640  0.79892196  0.80510482     0.79900
N2          N  0.76254779  0.81223001  0.76869937    -0.78400
C3          C  0.78716256  0.79443572  0.74440922     0.82400
N4          N  0.80654251  0.76240912  0.75638936    -0.78300
C5          C  0.80245776  0.74867396  0.79249421     0.82500
N6          N  0.77781054  0.76689770  0.81649579    -0.80000
C7          C  0.29575956  0.68668328  0.15790686     0.79900
N8          N  0.26326967  0.67468308  0.13967993    -0.78400
C9          C  0.24877692  0.63913419  0.14602265     0.82400
N10         N  0.26663951  0.61581132  0.17233836    -0.78300
C11         C  0.29932198  0.62741263  0.19112127     0.82500
N12         N  0.31331328  0.66327575  0.18403168    -0.80000
C13         C  0.76788480  0.66381382  0.31545634     0.79900
N14         N  0.75103491  0.63215879  0.29981986    -0.78400
C15         C  0.76471561  0.61577894  0.26724962     0.82400
N16         N  0.79568776  0.63189011  0.25010166    -0.78300
C17         C  0.81322546  0.66364561  0.26495615     0.82500
N18         N  0.79888315  0.67943299  0.29755550    -0.80000
C19         C  0.17182568  0.11741183  0.16564658     0.79900
N20         N  0.18529607  0.13664824  0.13450333    -0.78400
C21         C  0.16690229  0.16857742  0.12040406     0.82400
N22         N  0.13456978  0.18108866  0.13806738    -0.78300
C23         C  0.12072254  0.16276532  0.16948366     0.82500
N24         N  0.13951318  0.13090899  0.18298489    -0.80000
C25         C  0.65413288  0.14256225  0.22794731     0.79900
N26         N  0.63613205  0.17621210  0.23666366    -0.78400
C27         C  0.64466510  0.19478391  0.26988192     0.82400
N28         N  0.67229401  0.18017481  0.29386948    -0.78300
C29         C  0.69035153  0.14653000  0.28579182     0.82500
N30         N  0.68080081  0.12798475  0.25274588    -0.80000
C31         C  0.62073941  0.27277597  0.75600414     0.79900
N32         N  0.63528026  0.25726160  0.78920198    -0.78400
C33         C  0.66573793  0.27310453  0.80817834     0.82400
N34         N  0.68208147  0.30531441  0.79315088    -0.78300
C35         C  0.66827769  0.32176950  0.76015218     0.82500
N36         N  0.63752357  0.30519483  0.74168850    -0.80000
C37         C  0.29370802  0.76645351  0.67723027     0.79900
N38         N  0.27988791  0.80101596  0.68884686    -0.78400
C39         C  0.25388082  0.82093861  0.66709247     0.82400
N40         N  0.24128586  0.80540880  0.63327808    -0.78300
C41         C  0.25529670  0.77077589  0.62104076     0.82500
N42         N  0.28134829  0.75162894  0.64335255    -0.80000
O43         O  0.08269280  0.97990202  0.05051969    -0.88600
C44         C  0.06593505  0.05303169  0.13477347     0.87400
Mg45       Mg  0.11961140  0.99845167  0.00516956     1.58100
O46         O  0.98659869  0.05069178  0.07109849    -0.88400
O47         O  0.02064252  0.96666506  0.05483670    -0.75700
C48         C  0.07633258  0.18334188  0.97519129     0.92400
O49         O  0.13859880  0.04175581  0.08917473    -0.75500
O50         O  0.10413941  0.16258797  0.96266171    -0.83000
Mg51       Mg  0.10607720  0.98678964  0.10809217     1.58000
C52         C  0.93331828  0.15200277  0.03121656     0.92400
O53         O  0.07233295  0.92945314  0.13564983    -0.81300
H54         H  0.94755569  0.02010550  0.04132321    -0.06600
C55         C  0.06001190  0.13752700  0.06290355     0.87300
O56         O  0.06804963  0.01668727  0.96725097    -0.75800
O57         O  0.05780905  0.02318380  0.11690167    -0.88600
O58         O  0.93622805  0.13483001  0.06416766    -0.81400
C59         C  0.97577829  0.06422967  0.17598464     0.92500
C60         C  0.03789858  0.92553553  0.14949150     0.92300
Mg61       Mg  0.01145872  0.11367775  0.99524206     1.58000
O62         O  0.04503833  0.16819581  0.98587527    -0.81300
O63         O  0.97455493  0.06087014  0.00960215    -0.75500
O64         O  0.98884793  0.03380732  0.16103398    -0.81400
O65         O  0.16693721  0.95822660  0.09651164    -0.83100
O66         O  0.14432291  0.07282625  0.93660175    -0.81400
C67         C  0.96835421  0.04332937  0.04109696     0.86800
O68         O  0.05953340  0.07825523  0.98087374    -0.88500
O69         O  0.03090719  0.11937451  0.05257976    -0.88600
O70         O  0.09226360  0.13422607  0.04608199    -0.75700
Mg71       Mg  0.00137794  0.00220628  0.10676993     1.58000
O72         O  0.96167855  0.09154288  0.15509710    -0.83100
H73         H  0.05653213  0.94090009  0.01698234    -0.06800
O74         O  0.12509101  0.05444432  0.02850496    -0.88300
H75         H  0.16179246  0.08633056  0.05971129    -0.06600
H76         H  0.02916346  0.05131249  0.93974914    -0.06800
C77         C  0.14272827  0.06174463  0.05881252     0.86700
C78         C  0.05381347  0.96122247  0.04028899     0.87300
C79         C  0.05181318  0.04926940  0.96136758     0.87400
H80         H  0.05819277  0.15608866  0.08763056    -0.06800
O81         O  0.04694620  0.08434789  0.13079092    -0.75800
Mg82       Mg  0.11549122  0.10315565  0.99250901     1.58000
H83         H  0.09076848  0.05272765  0.15364921    -0.06800
C84         C  0.18803724  0.97286484  0.07004144     0.92400
O85         O  0.15769034  0.01309200  0.95672429    -0.83000
C86         C  0.16088772  0.03977523  0.93217308     0.92400
O87         O  0.01205998  0.95074318  0.14335248    -0.83000
Mg88       Mg  0.99295147  0.10641475  0.09786130     1.58200
O89         O  0.17309099  0.98600350  0.03942489    -0.81400
O90         O  0.95997239  0.14967485  0.00675786    -0.83100
C91         C  0.10261883  0.28721355  0.96732166     0.79900
N92         N  0.07992945  0.30269240  0.99500339    -0.78400
C93         C  0.05738631  0.27991757  0.01700094     0.82400
N94         N  0.05667362  0.24142339  0.00964981    -0.78300
C95         C  0.07992685  0.22522633  0.98271163     0.82500
N96         N  0.10287792  0.24830528  0.96157434    -0.80000
C97         C  0.95838366  0.08792214  0.27810353     0.79900
N98         N  0.98711959  0.06755948  0.29615377    -0.78400
C99         C  0.01357267  0.04735036  0.27571143     0.82400
N100        N  0.00918305  0.04627406  0.23665097    -0.78300
C101        C  0.98099414  0.06741047  0.21816956     0.82500
N102        N  0.95595407  0.08812965  0.23913536    -0.80000
C103        C  0.29115692  0.95774546  0.09668305     0.79900
N104        N  0.25203648  0.95525487  0.09669595    -0.78400
C105        C  0.23043206  0.97856125  0.07398592     0.82400
N106        N  0.24852400  0.00513973  0.05127114    -0.78300
C107        C  0.28775398  0.00949495  0.05221743     0.82500
N108        N  0.30892182  0.98432580  0.07401908    -0.80000
O109        O  0.94644416  0.54969697  0.35341405    -0.88600
C110        C  0.87002382  0.63530871  0.35991190     0.87400
Mg111      Mg  0.93145907  0.50041475  0.31906082     1.58100
O112        O  0.87278628  0.57767413  0.44311912    -0.88400
O113        O  0.95782280  0.56156860  0.41458910    -0.75700
C114        C  0.74448581  0.47153070  0.35855955     0.92400
O115        O  0.88655084  0.58161391  0.29159057    -0.75500
O116        O  0.76512002  0.45768307  0.33132248    -0.83000
Mg117      Mg  0.93932946  0.60504319  0.32580010     1.58000
C118        C  0.77359651  0.53816960  0.49537502     0.92400
O119        O  0.99475663  0.63519201  0.36049738    -0.81300
H120        H  0.90458955  0.55199309  0.48423868    -0.06600
C121        C  0.79079329  0.56100905  0.36697315     0.87300
O122        O  0.91229986  0.46606404  0.37168389    -0.75800
O123        O  0.89983123  0.61805750  0.37023113    -0.88600
O124        O  0.78921593  0.57148509  0.49007105    -0.81400
C125        C  0.85408470  0.68289129  0.44868704     0.92500
C126        C  0.99615552  0.65346780  0.39290961     0.92300
Mg127      Mg  0.81395751  0.49737263  0.42176346     1.58000
O128        O  0.76011819  0.48447320  0.38879511    -0.81300
O129        O  0.86590782  0.51634909  0.45839658    -0.75500
O130        O  0.88517298  0.66853815  0.43641441    -0.81400
O131        O  0.97301820  0.58916950  0.27021215    -0.83100
O132        O  0.85879866  0.42749548  0.29422259    -0.81400
C133        C  0.88156886  0.54921891  0.46316281     0.86800
O134        O  0.85021303  0.47938289  0.37614802    -0.88500
O135        O  0.80718750  0.55302831  0.39783486    -0.88600
O136        O  0.79495135  0.54106127  0.33670985    -0.75700
Mg137      Mg  0.91934491  0.61402560  0.42770229     1.58000
O138        O  0.82732603  0.66138632  0.46188192    -0.83100
H139        H  0.98582342  0.52026088  0.38430362    -0.06800
O140        O  0.87498768  0.52142762  0.30845754    -0.88300
H141        H  0.84369055  0.54905778  0.26863447    -0.06600
H142        H  0.87682872  0.44062515  0.41007059    -0.06800
C143        C  0.86761207  0.55029298  0.28857401     0.86700
C144        C  0.96456759  0.54321447  0.38371733     0.87300
C145        C  0.87926268  0.46075421  0.38639940     0.87400
H146        H  0.77351288  0.58669685  0.36537780    -0.06800
O147        O  0.83836013  0.63239727  0.37788662    -0.75800
Mg148      Mg  0.82622328  0.48564669  0.31893359     1.58000
H149        H  0.87078415  0.65300849  0.33425030    -0.06800
C150        C  0.95992196  0.56161754  0.24926008     0.92400
O151        O  0.91905264  0.44790934  0.28450979    -0.83000
C152        C  0.89294350  0.42271155  0.28022861     0.92400
O153        O  0.96881993  0.65139758  0.41641075    -0.83000
Mg154      Mg  0.81641955  0.60189568  0.43283331     1.58200
O155        O  0.94599548  0.53140355  0.26411088    -0.81400
O156        O  0.77673146  0.51146218  0.47094056    -0.83100
C157        C  0.64023350  0.45880089  0.33375301     0.79900
N158        N  0.67936240  0.45482330  0.33317884    -0.78400
C159        C  0.70185141  0.47713919  0.35596681     0.82400
N160        N  0.68460256  0.50364108  0.37945197    -0.78300
C161        C  0.64552344  0.50922705  0.37902429     0.82500
N162        N  0.62353405  0.48564067  0.35680378    -0.80000
C163        C  0.97824328  0.58580054  0.14696670     0.79900
N164        N  0.98080967  0.58580912  0.18600513    -0.78400
C165        C  0.95598981  0.56469479  0.20694422     0.82400
N166        N  0.92801927  0.54382339  0.18847202    -0.78300
C167        C  0.92364218  0.54490302  0.14954316     0.82500
N168        N  0.94992091  0.56506530  0.12888573    -0.80000
C169        C  0.83153056  0.78426405  0.47266484     0.79900
N170        N  0.83024300  0.74516714  0.47209429    -0.78400
C171        C  0.85030129  0.72527797  0.44569512     0.82400
N172        N  0.87160406  0.74498514  0.41935552    -0.78300
C173        C  0.87189338  0.78434398  0.41834085     0.82500
N174        N  0.85297734  0.80371021  0.44642353    -0.80000
O175        O  0.99604683  0.83479794  0.35785764    -0.88600
C176        C  0.98338967  0.95159834  0.36893589     0.87400
Mg177      Mg  0.00047877  0.80387010  0.40957482     1.58100
O178        O  0.07442968  0.92427705  0.33516044    -0.88400
O179        O  0.02876301  0.85230196  0.30721516    -0.75700
C180        C  0.12642815  0.89993659  0.52112783     0.92400
O181        O  0.94931013  0.88374153  0.42126565    -0.75500
O182        O  0.10250535  0.87225880  0.52633193    -0.83000
Mg183      Mg  0.94826599  0.87337934  0.35535750     1.58000
C184        C  0.17034459  0.95755340  0.38473669     0.92400
O185        O  0.95081812  0.86053833  0.28661194    -0.81300
H186        H  0.10791036  0.89154499  0.30186234    -0.06600
C187        C  0.05987386  0.94890694  0.44932476     0.87300
O188        O  0.06726376  0.80272456  0.40312056    -0.75800
O189        O  0.99056546  0.92066333  0.35262734    -0.88600
O190        O  0.14570596  0.96975627  0.35955175    -0.81400
C191        C  0.03397238  0.01492598  0.29555112     0.92500
C192        C  0.96377026  0.88540006  0.26273250     0.92300
Mg193      Mg  0.12560967  0.90135667  0.42442208     1.58000
O194        O  0.13341064  0.91220581  0.48771891    -0.81300
O195        O  0.12295094  0.89012895  0.35847760    -0.75500
O196        O  0.01771769  0.98264257  0.29188063    -0.81400
O197        O  0.90171659  0.82479589  0.36899187    -0.83100
O198        O  0.06038558  0.78928030  0.48305627    -0.81400
C199        C  0.10185662  0.90178702  0.33046255     0.86800
O200        O  0.08943502  0.85396566  0.43278990    -0.88500
O201        O  0.07738515  0.93800462  0.42037204    -0.88600
O202        O  0.04781436  0.92520606  0.47457647    -0.75700
Mg203      Mg  0.02335906  0.91936130  0.30245933     1.58000
O204        O  0.06421325  0.01858923  0.31701456    -0.83100
H205        H  0.02340830  0.79660190  0.32474186    -0.06800
O206        O  0.00339764  0.85590661  0.44035823    -0.88300
H207        H  0.96783317  0.88224013  0.47691257    -0.06600
H208        H  0.12430355  0.81570286  0.40759602    -0.06800
C209        C  0.97351026  0.87419718  0.44761014     0.86700
C210        C  0.01619927  0.82648598  0.32993560     0.87300
C211        C  0.09506023  0.82393670  0.41447751     0.87400
H212        H  0.05441197  0.97933547  0.45312579    -0.06800
O213        O  0.00986695  0.97586852  0.37723117    -0.75800
Mg214      Mg  0.05237437  0.85869633  0.48094467     1.58000
H215        H  0.95398129  0.95804055  0.37640803    -0.06800
C216        C  0.90464950  0.80380516  0.39938642     0.92400
O217        O  0.00111159  0.77686577  0.46646277    -0.83000
C218        C  0.03500776  0.76536895  0.47064233     0.92400
O219        O  0.96703987  0.91933276  0.27364090    -0.83000
Mg220      Mg  0.07638283  0.97517310  0.36931581     1.58200
O221        O  0.93682884  0.79854358  0.41599624    -0.81400
O222        O  0.15994458  0.95369849  0.41872469    -0.83100
C223        C  0.09351132  0.68808825  0.42670319     0.79900
N224        N  0.06660639  0.66721077  0.40630491    -0.78400
C225        C  0.02863968  0.67844076  0.40707872     0.82400
N226        N  0.01870526  0.70933041  0.42946916    -0.78300
C227        C  0.04550732  0.72939656  0.45024586     0.82500
N228        N  0.08254802  0.71863244  0.44826642    -0.80000
C229        C  0.25632773  0.92666477  0.33005162     0.79900
N230        N  0.22230627  0.94358875  0.33937940    -0.78400
C231        C  0.20831904  0.94051980  0.37502109     0.82400
N232        N  0.22855648  0.91940055  0.40166529    -0.78300
C233        C  0.26249458  0.90129732  0.39296864     0.82500
N234        N  0.27692766  0.90573010  0.35685346    -0.80000
C235        C  0.00390347  0.82817957  0.18272456     0.79900
N236        N  0.02315116  0.85544961  0.16172829    -0.78400
C237        C  0.02469442  0.89274258  0.17458194     0.82400
N238        N  0.00422225  0.90209225  0.20673225    -0.78300
C239        C  0.98425462  0.87500852  0.22698072     0.82500
N240        N  0.98486545  0.83833134  0.21495217    -0.80000
O241        O  0.60981607  0.34269646  0.91794444    -0.88600
C242        C  0.49431848  0.35526050  0.93667527     0.87400
Mg243      Mg  0.64375894  0.39222990  0.91072026     1.58100
O244        O  0.51600186  0.32118746  0.84480106    -0.88400
O245        O  0.59052635  0.29115063  0.88692731    -0.75700
C246        C  0.53986688  0.50507218  0.78952905     0.92400
O247        O  0.56652238  0.40834691  0.96501602    -0.75500
O248        O  0.56839404  0.51118909  0.81263964    -0.83000
Mg249      Mg  0.57510052  0.34185049  0.96776598     1.58000
C250        C  0.47589660  0.36808489  0.74904135     0.92400
O251        O  0.58743138  0.27252070  0.96752340    -0.81300
H252        H  0.54493623  0.28540110  0.81052920    -0.06600
C253        C  0.49512500  0.43583374  0.85984678     0.87300
O254        O  0.63979624  0.38522442  0.84506281    -0.75800
O255        O  0.52462954  0.33795902  0.92869596    -0.88600
O256        O  0.46444900  0.34461918  0.77514505    -0.81400
C257        C  0.42667079  0.28230671  0.88800908     0.92500
C258        C  0.56337623  0.24685752  0.95596164     0.92300
Mg259      Mg  0.53820567  0.40778951  0.79206871     1.58000
O260        O  0.52808729  0.47114278  0.78348430    -0.81300
O261        O  0.54786107  0.34172471  0.79474020    -0.75500
O262        O  0.46015907  0.27765658  0.90238512    -0.81400
O263        O  0.62627504  0.35551223  0.01185705    -0.83100
O264        O  0.65634607  0.46907931  0.84925773    -0.81400
C265        C  0.53628776  0.31471285  0.81650929     0.86800
O266        O  0.58748740  0.41622932  0.82651942    -0.88500
O267        O  0.50325952  0.40649899  0.84105774    -0.88600
O268        O  0.52067638  0.46016960  0.87068675    -0.75700
Mg269      Mg  0.52404864  0.28786734  0.89460206     1.58000
O270        O  0.42136096  0.30515110  0.85929379    -0.83100
H271        H  0.64666005  0.30785505  0.89121689    -0.06800
O272        O  0.59385847  0.42724226  0.91128640    -0.88300
H273        H  0.56896240  0.46429083  0.94751486    -0.06600
H274        H  0.62253155  0.39026104  0.78958905    -0.06800
C275        C  0.57640144  0.43464257  0.94134822     0.86700
C276        C  0.61703653  0.31376160  0.89862683     0.87300
C277        C  0.61676445  0.39731589  0.81896417     0.87400
H278        H  0.46537515  0.44071524  0.86774651    -0.06800
O279        O  0.46932139  0.36468376  0.91095608    -0.75800
Mg280      Mg  0.58682743  0.46628606  0.86190472     1.58000
H281        H  0.48896808  0.36271606  0.96627274    -0.06800
C282        C  0.64976064  0.38369208  0.00749974     0.92400
O283        O  0.67637722  0.44585413  0.90491891    -0.83000
C284        C  0.68386944  0.45713358  0.87151905     0.92400
O285        O  0.52931152  0.25659074  0.94850249    -0.83000
Mg286      Mg  0.46521828  0.35614524  0.84466905     1.58200
O287        O  0.65470568  0.39861563  0.97465409    -0.81400
O288        O  0.48538105  0.40172317  0.75815238    -0.83100
C289        C  0.45610053  0.34206192  0.64755796     0.79900
N290        N  0.48605472  0.35997233  0.63012921    -0.78400
C291        C  0.51500794  0.37618557  0.65104298     0.82400
N292        N  0.51194071  0.37622764  0.68998057    -0.78300
C293        C  0.48229600  0.35814017  0.70817753     0.82500
N294        N  0.45415910  0.34146741  0.68664879    -0.80000
C295        C  0.60617617  0.14851983  0.96017824     0.79900
N296        N  0.58370155  0.12969057  0.93377977    -0.78400
C297        C  0.55661615  0.14925522  0.91275833     0.82400
N298        N  0.55105676  0.18738955  0.92022523    -0.78300
C299        C  0.57370886  0.20672989  0.94595486     0.82500
N300        N  0.60111177  0.18713026  0.96567159    -0.80000
C301        C  0.78333729  0.47490132  0.83581991     0.79900
N302        N  0.80295550  0.44607317  0.85454446    -0.78400
C303        C  0.78392752  0.41945808  0.87570783     0.82400
N304        N  0.74505204  0.42320320  0.87888128    -0.78300
C305        C  0.72467644  0.45138206  0.86008511     0.82500
N306        N  0.74406925  0.47748305  0.83871879    -0.80000
O307        O  0.85726446  0.42350728  0.09398600    -0.88600
C308        C  0.87232434  0.44724206  0.97956006     0.87400
Mg309      Mg  0.90724150  0.41683186  0.12801655     1.58100
O310        O  0.83980715  0.35305751  0.99562547    -0.88400
O311        O  0.80837479  0.39045337  0.07027883    -0.75700
C312        C  0.02354631  0.29765330  0.03537436     0.92400
O313        O  0.92394933  0.47111273  0.05109960    -0.75500
O314        O  0.02595939  0.31835687  0.06574187    -0.83000
Mg315      Mg  0.85755715  0.47386257  0.05869988     1.58000
C316        C  0.89372586  0.26519558  0.95714382     0.92400
O317        O  0.78868779  0.47140616  0.06967851    -0.81300
H318        H  0.80336588  0.31548219  0.01933987    -0.06600
C319        C  0.95658411  0.37006032  0.98465782     0.87300
O320        O  0.89818896  0.34984952  0.12565225    -0.75800
O321        O  0.85471225  0.43637638  0.00837585    -0.88600
O322        O  0.86866647  0.28939078  0.94457947    -0.81400
C323        C  0.80489243  0.39943927  0.90743590     0.92500
C324        C  0.76371676  0.45895599  0.04519779     0.92300
Mg325      Mg  0.92703272  0.29960628  0.02059060     1.58000
O326        O  0.99170189  0.29278344  0.01774942    -0.81300
O327        O  0.85999615  0.30056444  0.02497646    -0.75500
O328        O  0.79735335  0.41176578  0.94074576    -0.81400
O329        O  0.87193314  0.51783364  0.10913419    -0.83100
O330        O  0.97781933  0.35451953  0.14517963    -0.81400
C331        C  0.83300154  0.32290331  0.01332496     0.86800
O332        O  0.93045597  0.33035402  0.07472842    -0.88500
O333        O  0.92601044  0.35289516  0.99123637    -0.88600
O334        O  0.98097700  0.37798002  0.01131558    -0.75700
Mg335      Mg  0.80530622  0.40166663  0.00437380     1.58000
O336        O  0.82967044  0.37236354  0.90242753    -0.83100
H337        H  0.82299851  0.39140989  0.12698602    -0.06800
O338        O  0.94083076  0.41615844  0.07853237    -0.88300
H339        H  0.97935635  0.45141672  0.05449605    -0.06600
H340        H  0.90101885  0.29357287  0.10900391    -0.06800
C341        C  0.94938886  0.44624549  0.06131463     0.86700
C342        C  0.82942176  0.40164816  0.09840126     0.87300
C343        C  0.90950163  0.32308607  0.10337098     0.87400
H344        H  0.96265633  0.37854429  0.95561088    -0.06800
O345        O  0.88438004  0.42354816  0.95443424    -0.75800
Mg346      Mg  0.98143481  0.36790585  0.07728585     1.58000
H347        H  0.87811175  0.47760109  0.97595935    -0.06800
C348        C  0.90206683  0.51312141  0.13052746     0.92400
O349        O  0.96288305  0.41377121  0.15809493    -0.83000
C350        C  0.96547262  0.37964469  0.16892535     0.92400
O351        O  0.77320795  0.45567070  0.01084058    -0.83000
Mg352      Mg  0.87839096  0.35758709  0.94851361     1.58200
O353        O  0.91632606  0.47999347  0.13593256    -0.81400
O354        O  0.92760060  0.27624478  0.96209272    -0.83100
C355        C  0.68159890  0.42363811  0.10284504     0.79900
N356        N  0.66022139  0.40374870  0.07614100    -0.78400
C357        C  0.67326259  0.40092671  0.03939733     0.82400
N358        N  0.70631310  0.41984260  0.02988940    -0.78300
C359        C  0.72712012  0.44026295  0.05629667     0.82500
N360        N  0.71477420  0.44151793  0.09268388    -0.80000
C361        C  0.92400109  0.32378884  0.24896978     0.79900
N362        N  0.90539761  0.35182690  0.26967468    -0.78400
C363        C  0.90512062  0.38904837  0.25633973     0.82400
N364        N  0.92571852  0.39741962  0.22425115    -0.78300
C365        C  0.94500697  0.36970459  0.20447889     0.82500
N366        N  0.94344765  0.33312586  0.21674611    -0.80000
C367        C  0.83477050  0.18904903  0.00150026     0.79900
N368        N  0.86217404  0.16669783  0.02011233    -0.78400
C369        C  0.90029088  0.17719669  0.01833881     0.82400
N370        N  0.90983809  0.20832889  0.99643988    -0.78300
C371        C  0.88275746  0.22953619  0.97720322     0.82500
N372        N  0.84552375  0.21997316  0.98039375    -0.80000
O373        O  0.36118571  0.99898268  0.83583345    -0.88600
C374        C  0.37771036  0.98152978  0.95154692     0.87400
Mg375      Mg  0.41056179  0.00405945  0.80265337     1.58100
O376        O  0.34073774  0.07370171  0.93006937    -0.88400
O377        O  0.31151981  0.03197099  0.85695533    -0.75700
C378        C  0.52430176  0.12800757  0.89441899     0.92400
O379        O  0.42841659  0.95140260  0.88121426    -0.75500
O380        O  0.52814593  0.10483647  0.86606747    -0.83000
Mg381      Mg  0.36199036  0.94972761  0.87261100     1.58000
C382        C  0.39200647  0.16749675  0.96337360     0.92400
O383        O  0.29324627  0.95231139  0.85999446    -0.81300
H384        H  0.30435979  0.10870918  0.90140878    -0.06600
C385        C  0.45825013  0.05907422  0.94667769     0.87300
O386        O  0.40241821  0.07087138  0.80282104    -0.75800
O387        O  0.36022320  0.99026380  0.92142356    -0.88600
O388        O  0.36788641  0.14276233  0.97635341    -0.81400
C389        C  0.30692427  0.02941939  0.01952341     0.92500
C390        C  0.27047214  0.96517249  0.88559338     0.92300
Mg391      Mg  0.42781984  0.12558852  0.90328370     1.58000
O392        O  0.49169711  0.13389950  0.90927644    -0.81300
O393        O  0.36088900  0.12327973  0.89658766    -0.75500
O394        O  0.30118936  0.01416844  0.98697055    -0.85400
O395        O  0.37502860  0.90390549  0.82366029    -0.83100
O396        O  0.48075119  0.06388319  0.78555509    -0.81400
C397        C  0.33394595  0.10203273  0.90929673     0.86800
O398        O  0.43354620  0.09126868  0.85399026    -0.88500
O399        O  0.42764959  0.07604480  0.93817664    -0.88600
O400        O  0.48230751  0.04859325  0.92116383    -0.75700
Mg401      Mg  0.30914138  0.02269407  0.92330493     1.58000
O402        O  0.32914332  0.05892037  0.02325788    -0.83100
H403        H  0.32639405  0.02946277  0.80074752    -0.06800
O404        O  0.44425588  0.00587653  0.85317645    -0.88300
H405        H  0.48361509  0.97082836  0.87770098    -0.06600
H406        H  0.40598199  0.12742256  0.81792855    -0.06800
C407        C  0.45351044  0.97602776  0.87081212     0.86700
C408        C  0.33292995  0.02028898  0.82981196     0.87300
C409        C  0.41382596  0.09793483  0.82482899     0.87400
H410        H  0.46465460  0.05288430  0.97644229    -0.06800
O411        O  0.38753821  0.00694879  0.97624122    -0.75800
Mg412      Mg  0.48345971  0.05480882  0.85467428     1.58000
H413        H  0.38483687  0.95170154  0.95698505    -0.06800
C414        C  0.40487657  0.90833193  0.80269686     0.92400
O415        O  0.46537217  0.00466265  0.77233019    -0.83000
C416        C  0.46858673  0.03864371  0.76139507     0.92400
O417        O  0.28233994  0.96587915  0.91947412    -0.83000
Mg418      Mg  0.37895925  0.07331652  0.97833492     1.58200
O419        O  0.41876024  0.94127622  0.79700228    -0.81400
O420        O  0.42599057  0.15701976  0.95776138    -0.83100
C421        C  0.42494856  0.09780768  0.68398183     0.79900
N422        N  0.44556820  0.08645681  0.71527260    -0.78400
C423        C  0.44820172  0.04926757  0.72521002     0.82400
N424        N  0.42859422  0.02259819  0.70371911    -0.78300
C425        C  0.40685347  0.03313482  0.67212061     0.82500
N426        N  0.40579260  0.07123128  0.66172692    -0.80000
C427        C  0.33204116  0.24978384  0.92885545     0.79900
N428        N  0.35800115  0.27123885  0.90854987    -0.78400
C429        C  0.39546540  0.25891395  0.90633759     0.82400
N430        N  0.40616726  0.22611883  0.92571466    -0.78300
C431        C  0.38034356  0.20503153  0.94618113     0.82500
N432        N  0.34344542  0.21696501  0.94716686    -0.80000
C433        C  0.19073063  0.01474861  0.83264357     0.79900
N434        N  0.17090326  0.03192487  0.86180764    -0.78400
C435        C  0.18482428  0.02920901  0.89855909     0.82400
N436        N  0.21663004  0.00677975  0.90554716    -0.78300
C437        C  0.23567389  0.98866328  0.87671784     0.82500
N438        N  0.22286676  0.99334521  0.84042010    -0.80000
O439        O  0.59361695  0.57201550  0.50165384    -0.88600
C440        C  0.47655248  0.55440872  0.48717813     0.87400
Mg441      Mg  0.62556936  0.52123763  0.50798900     1.58100
O442        O  0.49965631  0.58922415  0.57887597    -0.88400
O443        O  0.57208821  0.62040276  0.53620249    -0.75700
C444        C  0.53556645  0.40856300  0.63295097     0.92400
O445        O  0.54734396  0.50450450  0.45544306    -0.75500
O446        O  0.56402233  0.40465452  0.61015678    -0.83000
Mg447      Mg  0.55480503  0.57088869  0.45381104     1.58000
C448        C  0.46463718  0.53917309  0.67419520     0.92400
O449        O  0.56551433  0.63966360  0.45583935    -0.81300
H450        H  0.52498795  0.62724083  0.61415807    -0.06600
C451        C  0.48159884  0.47403886  0.56537361     0.87300
O452        O  0.62435938  0.53087259  0.57436738    -0.75800
O453        O  0.50658798  0.57248538  0.49480580    -0.88600
O454        O  0.45189802  0.56335612  0.64894968    -0.81400
C455        C  0.40874432  0.62387665  0.53638598     0.92500
C456        C  0.54134677  0.66401589  0.46940385     0.92300
Mg457      Mg  0.52603236  0.50449556  0.63174084     1.58000
O458        O  0.52084610  0.44122664  0.63920333    -0.81300
O459        O  0.53143738  0.57123781  0.63057853    -0.75500
O460        O  0.44134382  0.62943024  0.52152183    -0.81400
O461        O  0.60428480  0.55807770  0.40865589    -0.83100
O462        O  0.64277187  0.45232723  0.57097815    -0.81400
C463        C  0.51873457  0.59735222  0.60796460     0.86800
O464        O  0.57428900  0.49963869  0.59634658    -0.88500
O465        O  0.49013268  0.50413646  0.58270107    -0.88600
O466        O  0.50731411  0.45040722  0.55388060    -0.75700
Mg467      Mg  0.50519991  0.62248035  0.52883107     1.58000
O468        O  0.40508886  0.60222947  0.56600676    -0.83100
H469        H  0.62893937  0.60660988  0.53159413    -0.06800
O470        O  0.57438541  0.48930666  0.51079207    -0.88300
H471        H  0.55117760  0.44960740  0.47588493    -0.06600
H472        H  0.60984702  0.52957908  0.63072232    -0.06800
C473        C  0.55745177  0.47967060  0.48074904     0.86700
C474        C  0.59956851  0.59984100  0.52319347     0.87300
C475        C  0.60290505  0.52026983  0.60186443     0.87400
H476        H  0.45150373  0.46786424  0.55946389    -0.06800
O477        O  0.45272769  0.54448428  0.51312122    -0.75800
Mg478      Mg  0.57399681  0.44970285  0.56039689     1.58000
H479        H  0.47037363  0.54675934  0.45764355    -0.06800
C480        C  0.62694433  0.52875361  0.41205935     0.92400
O481        O  0.65262944  0.46429192  0.51095539    -0.83000
C482        C  0.66517570  0.46394273  0.54456052     0.92400
O483        O  0.50727679  0.65360992  0.47413306    -0.83000
Mg484      Mg  0.45041515  0.55270898  0.57949928     1.58200
O485        O  0.63300864  0.51300298  0.44438283    -0.81400
O486        O  0.47240689  0.50554341  0.66404892    -0.83100
C487        C  0.60232397  0.74303207  0.50771115     0.79900
N488        N  0.57623660  0.76516327  0.52731537    -0.78400
C489        C  0.53846177  0.75388970  0.52862840     0.82400
N490        N  0.52750536  0.72174297  0.50858254    -0.78300
C491        C  0.55336510  0.70032174  0.48839546     0.82500
N492        N  0.59059088  0.71097518  0.48865627    -0.80000
C493        C  0.48263624  0.59371369  0.76430669     0.79900
N494        N  0.50754383  0.56981068  0.78396402    -0.78400
C495        C  0.51840545  0.53572623  0.76768614     0.82400
N496        N  0.50294883  0.52602605  0.73276195    -0.78300
C497        C  0.47828964  0.54996303  0.71318557     0.82500
N498        N  0.46856484  0.58380202  0.72909148    -0.80000
C499        C  0.74616126  0.51173594  0.59564827     0.79900
N500        N  0.76540776  0.52926284  0.56623204    -0.78400
C501        C  0.75059458  0.52725909  0.52967824     0.82400
N502        N  0.71861119  0.50516470  0.52321461    -0.78300
C503        C  0.70030178  0.48678307  0.55234379     0.82500
N504        N  0.71391177  0.49082668  0.58830163    -0.80000
O505        O  0.41847239  0.81807604  0.58976018    -0.88600
C506        C  0.43772385  0.93349549  0.57509327     0.87400
Mg507      Mg  0.40963930  0.78417667  0.54063623     1.58100
O508        O  0.34524026  0.91185927  0.60789014    -0.88400
O509        O  0.38727237  0.83823394  0.64028058    -0.75700
C510        C  0.28512866  0.88274262  0.42521113     0.92400
O511        O  0.46394631  0.86078702  0.52268102    -0.75500
O512        O  0.30821047  0.85397249  0.42101890    -0.83000
Mg513      Mg  0.46881751  0.85317852  0.58896343     1.58000
C514        C  0.24881777  0.95255162  0.56066110     0.92400
O515        O  0.47135630  0.84318758  0.65861352    -0.81300
H516        H  0.31043424  0.88456704  0.64397060    -0.06600
C517        C  0.35809398  0.93110977  0.49336740     0.87300
O518        O  0.34363652  0.78901226  0.54844376    -0.75800
O519        O  0.42997849  0.90354824  0.59299246    -0.88600
O520        O  0.27565158  0.96388925  0.58384814    -0.81400
C521        C  0.38891495  0.00168098  0.64798678     0.92500
C522        C  0.45993200  0.86699349  0.68444635     0.92300
Mg523      Mg  0.29007831  0.88900527  0.52229475     1.58000
O524        O  0.27988671  0.89711472  0.45819916    -0.81300
O525        O  0.29349726  0.88097398  0.58823758    -0.75500
O526        O  0.40339777  0.96838207  0.65268907    -0.81400
O527        O  0.51284833  0.80166812  0.57442570    -0.83100
O528        O  0.34619920  0.76918220  0.46575823    -0.81400
C529        C  0.31624468  0.89243070  0.61481909     0.86800
O530        O  0.32377369  0.83939900  0.51545607    -0.88500
O531        O  0.34001921  0.92373732  0.52306584    -0.88600
O532        O  0.36792744  0.90489849  0.46957127    -0.75700
Mg533      Mg  0.39510485  0.90446334  0.64223000     1.58000
O534        O  0.36042196  0.00664810  0.62439803    -0.83100
H535        H  0.39150709  0.78178671  0.62518977    -0.06800
O536        O  0.40912203  0.83347211  0.50513890    -0.88300
H537        H  0.44463446  0.85789993  0.46732876    -0.06600
H538        H  0.28741935  0.80567932  0.54408950    -0.06800
C539        C  0.43925439  0.85077919  0.49703995     0.86700
C540        C  0.39913999  0.81132551  0.61860129     0.87300
C541        C  0.31691555  0.81117586  0.53596289     0.87400
H542        H  0.36603404  0.96069379  0.48756744    -0.06800
O543        O  0.41174446  0.95796020  0.56505766    -0.75800
Mg544      Mg  0.35884511  0.83850093  0.46597779     1.58000
H545        H  0.46742012  0.93895828  0.56754519    -0.06800
C546        C  0.50727890  0.77787701  0.54662236     0.92400
O547        O  0.40305711  0.75117613  0.48803811    -0.83000
C548        C  0.36929966  0.74264067  0.47799857     0.92400
O549        O  0.44839276  0.89993294  0.67495152    -0.83000
Mg550      Mg  0.34521842  0.96240272  0.57312405     1.58200
O551        O  0.47361010  0.77291424  0.53281087    -0.81400
O552        O  0.25710521  0.94196635  0.52737343    -0.83100
C553        C  0.33929928  0.64227301  0.45835093     0.79900
N554        N  0.35789252  0.62342068  0.48769387    -0.78400
C555        C  0.37629349  0.64325974  0.51604299     0.82400
N556        N  0.37767738  0.68233136  0.51300499    -0.78300
C557        C  0.35887383  0.70181354  0.48417700     0.82500
N558        N  0.34009426  0.68152192  0.45670843    -0.80000
C559        C  0.14977639  0.97757483  0.59000044     0.79900
N560        N  0.12900962  0.95002951  0.57084346    -0.78400
C561        C  0.14723643  0.92054712  0.55258733     0.82400
N562        N  0.18651145  0.92112224  0.55157120    -0.78300
C563        C  0.20764400  0.94853224  0.57049614     0.82500
N564        N  0.18902313  0.97671346  0.58958590    -0.80000
C565        C  0.48801112  0.84564208  0.78492794     0.79900
N566        N  0.45837677  0.86283371  0.80394998    -0.78400
C567        C  0.42697845  0.87684545  0.78448697     0.82400
N568        N  0.42736367  0.87567833  0.74541120    -0.78300
C569        C  0.45682454  0.85857454  0.72586859     0.82500
N570        N  0.48724204  0.84411212  0.74586507    -0.80000
C571        C  0.18334702  0.30662472  0.64698911     0.79900
N572        N  0.16926597  0.27319148  0.63219989    -0.78400
C573        C  0.13991763  0.25410504  0.64922179     0.82400
N574        N  0.12503725  0.26852438  0.68196489    -0.78300
C575        C  0.13831464  0.30204045  0.69712842     0.82500
N576        N  0.16770299  0.32060570  0.67966329    -0.80000
C577        C  0.13148820  0.01395899  0.60157782    -0.12300
C578        C  0.11840470  0.04015930  0.57319081     0.03200
C579        C  0.11208390  0.07875071  0.58268797    -0.12800
C580        C  0.11902386  0.09186590  0.62008631     0.18100
C581        C  0.12930895  0.06529748  0.64906321    -0.09800
C582        C  0.13583900  0.02660734  0.63962157    -0.02800
H583        H  0.10481968  0.09922765  0.56017212     0.04600
C584        C  0.12310417  0.13367973  0.62630761     0.20000
H585        H  0.14669534  0.00698228  0.66148035     0.09800
C586        C  0.09200673  0.15572504  0.63940511    -0.16200
C587        C  0.09604436  0.19546642  0.64560714     0.02800
C588        C  0.13171257  0.21365150  0.63823479    -0.11500
C589        C  0.16229960  0.19131555  0.62401194    -0.01500
C590        C  0.15835366  0.15175864  0.61842267    -0.06700
H591        H  0.06467651  0.14192390  0.64507743     0.05800
H592        H  0.19014508  0.20424447  0.61876193     0.09200
Br593      Br  0.13826332  0.08162020  0.70091453    -0.06400
Br594      Br  0.11510589  0.02646800  0.51986268    -0.03300
Br595      Br  0.05160236  0.22316986  0.66321441    -0.00500
Br596      Br  0.20257479  0.12316796  0.60152527    -0.04900
C597        C  0.42011738  0.33597049  0.62570669    -0.12300
C598        C  0.40070941  0.30068262  0.62713117     0.03200
C599        C  0.36113686  0.29928569  0.61924773    -0.12800
C600        C  0.34092264  0.33282110  0.60848341     0.18100
C601        C  0.36153098  0.36690063  0.60149722    -0.09800
C602        C  0.40093957  0.36843602  0.61050371    -0.02800
H603        H  0.34576383  0.27253670  0.62367439     0.04600
C604        C  0.29854600  0.33323047  0.61205728     0.20000
H605        H  0.41585014  0.39574844  0.60839631     0.09800
C606        C  0.28268788  0.35327380  0.64294121    -0.16200
C607        C  0.24431095  0.34791585  0.65345204     0.02800
C608        C  0.22069009  0.32177322  0.63241766    -0.11500
C609        C  0.23605499  0.30479433  0.59909561    -0.01500
C610        C  0.27468123  0.30985930  0.58926329    -0.06700
H611        H  0.30110327  0.37140233  0.66059124     0.05800
H612        H  0.21873721  0.28544384  0.58172720     0.09200
Br613      Br  0.33640849  0.41221700  0.58166197    -0.06400
Br614      Br  0.42746093  0.25420157  0.63949800    -0.03300
Br615      Br  0.22892541  0.37531456  0.69868525    -0.00500
Br616      Br  0.29428531  0.28277308  0.54571229    -0.04900
C617        C  0.11706237  0.31181430  0.93619201    -0.12300
C618        C  0.09104467  0.33524002  0.91477095     0.03200
C619        C  0.09829487  0.34283112  0.87621863    -0.12800
C620        C  0.13185592  0.32888710  0.85928546     0.18100
C621        C  0.16126682  0.31293231  0.88268390    -0.09800
C622        C  0.15332284  0.30340040  0.92077623    -0.02800
H623        H  0.07606426  0.35639842  0.85860802     0.04600
C624        C  0.13151753  0.32296555  0.81743057     0.20000
H625        H  0.17416236  0.28669448  0.93727696     0.09800
C626        C  0.13169134  0.35454326  0.79223488    -0.16200
C627        C  0.13074059  0.34881798  0.75240710     0.02800
C628        C  0.12993259  0.31098005  0.73756702    -0.11500
C629        C  0.12668620  0.27981177  0.76304089    -0.01500
C630        C  0.12726870  0.28547591  0.80251287    -0.06700
H631        H  0.13266990  0.38358331  0.80357297     0.05800
H632        H  0.12540995  0.25051412  0.75239143     0.09200
Br633      Br  0.21093955  0.30049031  0.86245078    -0.06400
Br634      Br  0.04245709  0.35278721  0.93390224    -0.03300
Br635      Br  0.12820986  0.39338367  0.71979252    -0.00500
Br636      Br  0.12160387  0.24072922  0.83459972    -0.04900
C637        C  0.13472290  0.67838203  0.42982595    -0.12300
C638        C  0.14565650  0.65351919  0.46012717     0.03200
C639        C  0.17395744  0.66520316  0.48672394    -0.12800
C640        C  0.19143391  0.70140286  0.48315344     0.18100
C641        C  0.18553649  0.72273313  0.44916950    -0.09800
C642        C  0.15894944  0.70970914  0.42158089    -0.02800
H643        H  0.17883901  0.64823761  0.51248808     0.04600
C644        C  0.20869301  0.71954359  0.51765559     0.20000
H645        H  0.15130548  0.72893485  0.39808727     0.09800
C646        C  0.24636407  0.71032627  0.52940335    -0.16200
C647        C  0.26215547  0.72601937  0.56317394     0.02800
C648        C  0.24050658  0.75293876  0.58496175    -0.11500
C649        C  0.20276219  0.76191854  0.57277830    -0.01500
C650        C  0.18655777  0.74472392  0.54021490    -0.06700
H651        H  0.26324694  0.69025519  0.51265505     0.05800
H652        H  0.18505581  0.78123832  0.58953596     0.09200
Br653      Br  0.20819818  0.77263399  0.44219459    -0.06400
Br654      Br  0.11573353  0.60885325  0.47203302    -0.03300
Br655      Br  0.31306039  0.70867461  0.57743357    -0.00500
Br656      Br  0.13301241  0.75424847  0.52941247    -0.04900
C657        C  0.23765924  0.85789306  0.68157474    -0.12300
C658        C  0.25717369  0.88043523  0.70965344     0.03200
C659        C  0.23889315  0.91244000  0.72547965    -0.12800
C660        C  0.20155623  0.92325563  0.71394926     0.18100
C661        C  0.18270281  0.90237919  0.68483138    -0.09800
C662        C  0.20077445  0.87005409  0.66877454    -0.02800
H663        H  0.25374593  0.92877665  0.74764024     0.04600
C664        C  0.18301968  0.95521925  0.73488878     0.20000
H665        H  0.18530567  0.85371509  0.64709468     0.09800
C666        C  0.19953821  0.99199777  0.73250736    -0.16200
C667        C  0.19522184  0.01833560  0.76249951     0.02800
C668        C  0.17338788  0.00817395  0.79472592    -0.11500
C669        C  0.15036876  0.97504890  0.79285858    -0.01500
C670        C  0.15674169  0.94744369  0.76442804    -0.06700
H671        H  0.21980193  0.99827416  0.70993327     0.05800
H672        H  0.13388859  0.96667380  0.81774677     0.09200
Br673      Br  0.13212018  0.91667052  0.66700147    -0.06400
Br674      Br  0.30916841  0.87107370  0.72756392    -0.03300
Br675      Br  0.22693421  0.06351982  0.76286828    -0.00500
Br676      Br  0.13655029  0.89670366  0.77288587    -0.04900
C677        C  0.46841416  0.63015667  0.77967205    -0.12300
C678        C  0.47823656  0.66346314  0.75910859     0.03200
C679        C  0.44990589  0.69110697  0.75072452    -0.12800
C680        C  0.41218767  0.68654056  0.76421198     0.18100
C681        C  0.40459010  0.65688740  0.79072238    -0.09800
C682        C  0.43282788  0.62884423  0.79836407    -0.02800
H683        H  0.45626830  0.71382744  0.73043052     0.04600
C684        C  0.38032301  0.70766999  0.74469337     0.20000
H685        H  0.42493243  0.60327995  0.81431436     0.09800
C686        C  0.35201877  0.68652545  0.72478502    -0.16200
C687        C  0.32263921  0.70507181  0.70401164     0.02800
C688        C  0.32256421  0.74563217  0.70096267    -0.11500
C689        C  0.35079732  0.76676196  0.72105908    -0.01500
C690        C  0.37907052  0.74808877  0.74328428    -0.06700
H691        H  0.35260989  0.65530176  0.72565912     0.05800
H692        H  0.35109033  0.79788740  0.71937434     0.09200
Br693      Br  0.35464456  0.65106159  0.81325673    -0.06400
Br694      Br  0.52722422  0.66666169  0.73417758    -0.03300
Br695      Br  0.28193374  0.67348003  0.68345696    -0.00500
Br696      Br  0.41407402  0.77860676  0.77295173    -0.04900
C697        C  0.58596349  0.25432776  0.73728980    -0.12300
C698        C  0.57099239  0.26367986  0.70020797     0.03200
C699        C  0.53725885  0.24569216  0.68631269    -0.12800
C700        C  0.51891598  0.21687742  0.70757946     0.18100
C701        C  0.53526385  0.20551515  0.74293309    -0.09800
C702        C  0.56721965  0.22491186  0.75769027    -0.02800
H703        H  0.52603965  0.25322876  0.65809059     0.04600
C704        C  0.48552129  0.19566143  0.69118227     0.20000
H705        H  0.57771357  0.21592502  0.78540137     0.09800
C706        C  0.49110748  0.17230170  0.65889806    -0.16200
C707        C  0.46438696  0.14363382  0.64924351     0.02800
C708        C  0.43194401  0.13773543  0.67240476    -0.11500
C709        C  0.42300366  0.16569201  0.70015086    -0.01500
C710        C  0.44988856  0.19409496  0.71024108    -0.06700
H711        H  0.51809240  0.17365248  0.64360985     0.05800
H712        H  0.39811951  0.16165821  0.71823534     0.09200
Br713      Br  0.51756207  0.16121547  0.77092250    -0.06400
Br714      Br  0.59650184  0.29657556  0.66455155    -0.03300
Br715      Br  0.47869130  0.10654890  0.61114737    -0.00500
Br716      Br  0.43825947  0.22797545  0.75216653    -0.04900
C717        C  0.68179624  0.25549280  0.84465203    -0.12300
C718        C  0.66526904  0.22325482  0.86373971     0.03200
C719        C  0.68292262  0.20761864  0.89672861    -0.12800
C720        C  0.71617807  0.22389994  0.91267572     0.18100
C721        C  0.73191060  0.25684842  0.89510784    -0.09800
C722        C  0.71508465  0.27195305  0.86148369    -0.02800
H723        H  0.67050994  0.18245766  0.91021984     0.04600
C724        C  0.73601489  0.20439862  0.94549882     0.20000
H725        H  0.72844819  0.29685615  0.84850664     0.09800
C726        C  0.75575284  0.16963171  0.93902669    -0.16200
C727        C  0.78390038  0.15645222  0.96526936     0.02800
C728        C  0.79367019  0.17910311  0.99740981    -0.11500
C729        C  0.76792817  0.20876237  0.00779192    -0.01500
C730        C  0.73956138  0.22195212  0.98174347    -0.06700
H731        H  0.75200643  0.15474786  0.91193690     0.05800
H732        H  0.77419623  0.22604316  0.03296801     0.09200
Br733      Br  0.77716342  0.28188022  0.91506658    -0.06400
Br734      Br  0.61831578  0.19859469  0.84879736    -0.03300
Br735      Br  0.81502566  0.11301445  0.95132980    -0.00500
Br736      Br  0.70931522  0.26641048  0.99482327    -0.04900
C737        C  0.68802710  0.35666166  0.74425171    -0.12300
C738        C  0.66938124  0.38349406  0.71942987     0.03200
C739        C  0.69007171  0.41419914  0.70387884    -0.12800
C740        C  0.72904345  0.42029479  0.71327865     0.18100
C741        C  0.74717950  0.39544848  0.73996475    -0.09800
C742        C  0.72691543  0.36380044  0.75475453    -0.02800
H743        H  0.67545641  0.43370313  0.68409273     0.04600
C744        C  0.74943276  0.45202407  0.69314653     0.20000
H745        H  0.74187789  0.34461359  0.77453692     0.09800
C746        C  0.73382254  0.48946138  0.69499943    -0.16200
C747        C  0.74001663  0.51598059  0.66535154     0.02800
C748        C  0.76301217  0.50551741  0.63398880    -0.11500
C749        C  0.78541732  0.47183628  0.63692015    -0.01500
C750        C  0.77700209  0.44396380  0.66471630    -0.06700
H751        H  0.71261996  0.49619871  0.71658709     0.05800
H752        H  0.80285719  0.46324753  0.61275838     0.09200
Br753      Br  0.79895726  0.40436765  0.75792581    -0.06400
Br754      Br  0.61516611  0.38319031  0.70778142    -0.03300
Br755      Br  0.70789082  0.56119346  0.66285444    -0.00500
Br756      Br  0.79629948  0.39281270  0.65597419    -0.04900
C757        C  0.64939982  0.12606495  0.18904035    -0.12300
C758        C  0.68030724  0.10823646  0.16926861     0.03200
C759        C  0.67616976  0.09965252  0.13030723    -0.12800
C760        C  0.64249768  0.10969736  0.11016590     0.18100
C761        C  0.61111704  0.12563321  0.12993600    -0.09800
C762        C  0.61455819  0.13312336  0.16913776    -0.02800
H763        H  0.70062470  0.08827998  0.11481958     0.04600
C764        C  0.64353280  0.11157377  0.06807470     0.20000
H765        H  0.59064612  0.14685272  0.18355939     0.09800
C766        C  0.62238957  0.08528240  0.04589713    -0.16200
C767        C  0.61432509  0.09303286  0.00712930     0.02800
C768        C  0.62823255  0.12754554  0.99042192    -0.11500
C769        C  0.65521523  0.14958903  0.01126444    -0.01500
C770        C  0.66129206  0.14309659  0.05025444    -0.06700
H771        H  0.60929571  0.06058382  0.05956044     0.05800
H772        H  0.66682929  0.17567884  0.99884119     0.09200
Br773      Br  0.56493451  0.14244023  0.10371695    -0.06400
Br774      Br  0.73115184  0.10022449  0.19064698    -0.03300
Br775      Br  0.58019153  0.05787566  0.98119492    -0.00500
Br776      Br  0.68721299  0.18259002  0.07921927    -0.04900
C777        C  0.72623972  0.13455254  0.30659427    -0.12300
C778        C  0.74820531  0.15985652  0.33025228     0.03200
C779        C  0.78736506  0.15208369  0.33713027    -0.12800
C780        C  0.80521211  0.12017411  0.32031969     0.18100
C781        C  0.78262336  0.09297265  0.30050656    -0.09800
C782        C  0.74328054  0.09953606  0.29531847    -0.02800
H783        H  0.80470959  0.17271426  0.35296675     0.04600
C784        C  0.84757288  0.11855132  0.31812379     0.20000
H785        H  0.72701347  0.07889712  0.27843056     0.09800
C786        C  0.86770047  0.08875271  0.33677876    -0.16200
C787        C  0.90590954  0.08036421  0.32729976     0.02800
C788        C  0.92469723  0.10270968  0.29915607    -0.11500
C789        C  0.90553186  0.13505926  0.28376345    -0.01500
C790        C  0.86712051  0.14274950  0.29248152    -0.06700
H791        H  0.85261042  0.06998291  0.35638276     0.05800
H792        H  0.91942599  0.15241374  0.26217964     0.09200
Br793      Br  0.80486922  0.04999017  0.27389459    -0.06400
Br794      Br  0.72905359  0.20720885  0.35145938    -0.03300
Br795      Br  0.92778646  0.03465528  0.34966441    -0.00500
Br796      Br  0.84114939  0.18303700  0.26426319    -0.04900
C797        C  0.63161852  0.23471530  0.27525901    -0.12300
C798        C  0.59291136  0.24652080  0.26982546     0.03200
C799        C  0.58295490  0.28544335  0.27445260    -0.12800
C800        C  0.61132948  0.31255528  0.28401370     0.18100
C801        C  0.64995064  0.30067765  0.28911080    -0.09800
C802        C  0.65974279  0.26215919  0.28452408    -0.02800
H803        H  0.55311989  0.29446031  0.27121422     0.04600
C804        C  0.60104235  0.35272744  0.29221733     0.20000
H805        H  0.68972081  0.25369405  0.28788228     0.09800
C806        C  0.59455472  0.36226728  0.33055899    -0.16200
C807        C  0.60253874  0.39926691  0.34386054     0.02800
C808        C  0.61711267  0.42708879  0.31832623    -0.11500
C809        C  0.61849755  0.41889979  0.27897284    -0.01500
C810        C  0.60977294  0.38189208  0.26570848    -0.06700
H811        H  0.58796324  0.33976966  0.35106750     0.05800
H812        H  0.62945118  0.44015862  0.25912351     0.09200
Br813      Br  0.69039600  0.33571913  0.30375199    -0.06400
Br814      Br  0.55254506  0.21052708  0.25843132    -0.03300
Br815      Br  0.60060423  0.40749647  0.39833227    -0.00500
Br816      Br  0.61484092  0.37056452  0.21224098    -0.04900
C817        C  0.29248616  0.26250643  0.93668715    -0.12300
C818        C  0.28713290  0.28531679  0.96957680     0.03200
C819        C  0.25807167  0.27579603  0.99548070    -0.12800
C820        C  0.23364106  0.24446288  0.98807381     0.18100
C821        C  0.23382862  0.22741625  0.95147525    -0.09800
C822        C  0.26324701  0.23657828  0.92593223    -0.02800
H823        H  0.25743416  0.28994393  0.02315683     0.04600
C824        C  0.21505958  0.22486150  0.02073720     0.20000
H825        H  0.26661929  0.21908687  0.90045122     0.09800
C826        C  0.18422472  0.24230241  0.03961659    -0.16200
C827        C  0.16777936  0.22503422  0.07197321     0.02800
C828        C  0.18228484  0.18905972  0.08597105    -0.11500
C829        C  0.21340995  0.17204014  0.06661420    -0.01500
C830        C  0.22997732  0.18965881  0.03483758    -0.06700
H831        H  0.17316310  0.26975627  0.02932828     0.05800
H832        H  0.22559992  0.14491260  0.07642417     0.09200
Br833      Br  0.19813627  0.18742025  0.93785424    -0.06400
Br834      Br  0.32442619  0.32330259  0.98452383    -0.03300
Br835      Br  0.12698936  0.25395194  0.09539534    -0.00500
Br836      Br  0.27453929  0.16519670  0.01314366    -0.04900
C837        C  0.19335065  0.08300626  0.18109937    -0.12300
C838        C  0.17759758  0.05736468  0.20850948     0.03200
C839        C  0.20002743  0.02728523  0.22349095    -0.12800
C840        C  0.23801174  0.02091273  0.21175768     0.18100
C841        C  0.25357992  0.04504293  0.18350443    -0.09800
C842        C  0.23138330  0.07573967  0.16853784    -0.02800
H843        H  0.18766239  0.00858638  0.24501666     0.04600
C844        C  0.25976023  0.98930163  0.23123706     0.20000
H845        H  0.24431878  0.09426305  0.14726982     0.09800
C846        C  0.24407227  0.95207534  0.22913204    -0.16200
C847        C  0.24874121  0.92626330  0.25975142     0.02800
C848        C  0.27115146  0.93674070  0.29205509    -0.11500
C849        C  0.29310854  0.97057926  0.29035295    -0.01500
C850        C  0.28655818  0.99755727  0.26092777    -0.06700
H851        H  0.22329800  0.94536708  0.20662244     0.05800
H852        H  0.30982548  0.97935059  0.31533323     0.09200
Br853      Br  0.30461123  0.03700169  0.16437980    -0.06400
Br854      Br  0.12566000  0.05921889  0.22694227    -0.03300
Br855      Br  0.21597713  0.88180505  0.26095580    -0.00500
Br856      Br  0.30777454  0.04811808  0.26785257    -0.04900
C857        C  0.08472034  0.17715704  0.18766850    -0.12300
C858        C  0.07618499  0.17099347  0.22680203     0.03200
C859        C  0.04130787  0.18436922  0.24177197    -0.12800
C860        C  0.01581741  0.20709079  0.21967986     0.18100
C861        C  0.02570692  0.21579308  0.18139861    -0.09800
C862        C  0.05884922  0.19958454  0.16548694    -0.02800
H863        H  0.03538659  0.17947907  0.27184695     0.04600
C864        C  0.98370526  0.22740342  0.23921628     0.20000
H865        H  0.06525845  0.20626507  0.13591965     0.09800
C866        C  0.99283702  0.25142546  0.27040468    -0.16200
C867        C  0.96662499  0.27932426  0.28283824     0.02800
C868        C  0.93138436  0.28448562  0.26290046    -0.11500
C869        C  0.91918620  0.25512985  0.23775105    -0.01500
C870        C  0.94532296  0.22696909  0.22521853    -0.06700
H871        H  0.02179520  0.25130328  0.28252322     0.05800
H872        H  0.89171689  0.25802536  0.22277600     0.09200
Br873      Br  0.99882109  0.25393239  0.15094897    -0.06400
Br874      Br  0.11326130  0.15171079  0.26345974    -0.03300
Br875      Br  0.98472462  0.31670295  0.31926524    -0.00500
Br876      Br  0.92845213  0.19138694  0.18632787    -0.04900
C877        C  0.66695156  0.43399665  0.14069682    -0.12300
C878        C  0.68938869  0.42335050  0.17301298     0.03200
C879        C  0.69607780  0.45005124  0.20234482    -0.12800
C880        C  0.68136378  0.48768960  0.19923229     0.18100
C881        C  0.65453493  0.49638705  0.16970355    -0.09800
C882        C  0.64619924  0.46878837  0.14160921    -0.02800
H883        H  0.71674043  0.44305893  0.22494164     0.04600
C884        C  0.70256475  0.51897247  0.21888116     0.20000
H885        H  0.62944668  0.47761429  0.11658303     0.09800
C886        C  0.73946343  0.52775060  0.20565362    -0.16200
C887        C  0.76036887  0.55883598  0.22035076     0.02800
C888        C  0.74455806  0.58177930  0.25006916    -0.11500
C889        C  0.70743331  0.57232885  0.26338816    -0.01500
C890        C  0.68643381  0.54154885  0.24792477    -0.06700
H891        H  0.75171921  0.51072710  0.18272587     0.05800
H892        H  0.69390202  0.58955967  0.28525561     0.09200
Br893      Br  0.63593694  0.54794304  0.16106563    -0.06400
Br894      Br  0.71809595  0.37593900  0.17392369    -0.03300
Br895      Br  0.80936931  0.56720195  0.19664721    -0.00500
Br896      Br  0.63553500  0.53219474  0.26647654    -0.04900
C897        C  0.99530797  0.78919015  0.16875886    -0.12300
C898        C  0.00444049  0.75814363  0.19351189     0.03200
C899        C  0.97757628  0.72883887  0.19928970    -0.12800
C900        C  0.94111132  0.73061017  0.18150649     0.18100
C901        C  0.93450396  0.75797270  0.15216343    -0.09800
C902        C  0.96225426  0.78637234  0.14515676    -0.02800
H903        H  0.98301262  0.70778967  0.22177021     0.04600
C904        C  0.90850580  0.71266408  0.20187329     0.20000
H905        H  0.95453582  0.81017835  0.12633255     0.09800
C906        C  0.89830429  0.72820630  0.23743645    -0.16200
C907        C  0.86837676  0.71271273  0.25903555     0.02800
C908        C  0.84671301  0.68116638  0.24446152    -0.11500
C909        C  0.85740271  0.66580418  0.20852325    -0.01500
C910        C  0.88820013  0.68080989  0.18765224    -0.06700
H911        H  0.91427099  0.75257497  0.24876414     0.05800
H912        H  0.84184212  0.64189196  0.19620855     0.09200
Br913      Br  0.88534207  0.76259846  0.12651786    -0.06400
Br914      Br  0.04812769  0.76008446  0.22783636    -0.03300
Br915      Br  0.86110891  0.73624012  0.30829537    -0.00500
Br916      Br  0.90223530  0.65626594  0.14060562    -0.04900
C917        C  0.75180779  0.68246114  0.35064474    -0.12300
C918        C  0.72301079  0.66526559  0.37377048     0.03200
C919        C  0.70863916  0.68508020  0.40541592    -0.12800
C920        C  0.72098930  0.72234455  0.41463271     0.18100
C921        C  0.74936763  0.73969331  0.39207686    -0.09800
C922        C  0.76476611  0.71966417  0.36087529    -0.02800
H923        H  0.68631404  0.67172948  0.42237757     0.04600
C924        C  0.70110782  0.74235048  0.44640403     0.20000
H925        H  0.78604412  0.73415435  0.34376014     0.09800
C926        C  0.70250672  0.72519119  0.48293569    -0.16200
C927        C  0.67254548  0.73108749  0.50884146     0.02800
C928        C  0.64155962  0.75580460  0.49898027    -0.11500
C929        C  0.64437406  0.77855061  0.46583726    -0.01500
C930        C  0.67278252  0.77078162  0.43868317    -0.06700
H931        H  0.72404792  0.70324815  0.48924592     0.05800
H932        H  0.62031873  0.79695516  0.45747955     0.09200
Br933      Br  0.76680157  0.79114011  0.40160746    -0.06400
Br934      Br  0.69949699  0.61595517  0.36471088    -0.03300
Br935      Br  0.67064276  0.69848335  0.55331818    -0.00500
Br936      Br  0.66554234  0.79296125  0.38857443    -0.04900
C937        C  0.31207772  0.92330010  0.10960662    -0.12300
C938        C  0.31675020  0.89301500  0.08316313     0.03200
C939        C  0.32285438  0.85553782  0.09637934    -0.12800
C940        C  0.32415102  0.84760448  0.13576364     0.18100
C941        C  0.32324849  0.87826937  0.16220691    -0.09800
C942        C  0.31670381  0.91596786  0.14900465    -0.02800
H943        H  0.32323981  0.83206040  0.07589834     0.04600
C944        C  0.31935008  0.80714295  0.14772112     0.20000
H945        H  0.31249575  0.93897887  0.16953055     0.09800
C946        C  0.34906268  0.78037248  0.14123771    -0.16200
C947        C  0.34256791  0.74075008  0.14551357     0.02800
C948        C  0.30574963  0.72770659  0.15589116    -0.11500
C949        C  0.27643829  0.75455561  0.16320904    -0.01500
C950        C  0.28286764  0.79392847  0.15918779    -0.06700
H951        H  0.37684206  0.79026628  0.13137179     0.05800
H952        H  0.24799200  0.74475226  0.17125151     0.09200
Br953      Br  0.32779719  0.86930487  0.21639229    -0.06400
Br954      Br  0.30814430  0.90023065  0.02897497    -0.03300
Br955      Br  0.38345660  0.70568141  0.13333207    -0.00500
Br956      Br  0.23969813  0.82797468  0.16636342    -0.04900
C957        C  0.01106379  0.60174779  0.12556172    -0.12300
C958        C  0.03391813  0.57775741  0.10214541     0.03200
C959        C  0.07175822  0.58843219  0.09376788    -0.12800
C960        C  0.08748672  0.62228330  0.10899832     0.18100
C961        C  0.06335565  0.64846023  0.12810810    -0.09800
C962        C  0.02539289  0.63802977  0.13640627    -0.02800
H963        H  0.09036960  0.56805310  0.07933415     0.04600
C964        C  0.12962159  0.62377340  0.11525907     0.20000
H965        H  0.00824037  0.65677417  0.15434117     0.09800
C966        C  0.15343428  0.64413144  0.09028355    -0.16200
C967        C  0.19307525  0.64762184  0.09823959     0.02800
C968        C  0.20931517  0.63018164  0.13167172    -0.11500
C969        C  0.18536556  0.60813656  0.15527986    -0.01500
C970        C  0.14592658  0.60529300  0.14761817    -0.06700
H971        H  0.14101985  0.65806559  0.06512570     0.05800
H972        H  0.19676235  0.59493962  0.18127336     0.09200
Br973      Br  0.08305009  0.69598453  0.14823286    -0.06400
Br974      Br  0.01863119  0.52671435  0.08749401    -0.03300
Br975      Br  0.22304094  0.67662872  0.06231962    -0.00500
Br976      Br  0.11478238  0.57813217  0.18392887    -0.04900
C977        C  0.32995982  0.62129069  0.42267906    -0.12300
C978        C  0.29942073  0.63324206  0.39839582     0.03200
C979        C  0.29754679  0.62015736  0.36063965    -0.12800
C980        C  0.32606129  0.59557289  0.34600653     0.18100
C981        C  0.35585039  0.58232896  0.37058810    -0.09800
C982        C  0.35712700  0.59459835  0.40883150    -0.02800
H983        H  0.27483212  0.63110027  0.34185700     0.04600
C984        C  0.32610035  0.58929087  0.30402916     0.20000
H985        H  0.38133635  0.58570313  0.42680189     0.09800
C986        C  0.35520365  0.60643020  0.28233249    -0.16200
C987        C  0.34934281  0.61421968  0.24328863     0.02800
C988        C  0.31317230  0.60621377  0.22583918    -0.11500
C989        C  0.28666308  0.58367987  0.24628258    -0.01500
C990        C  0.29306643  0.57504287  0.28506307    -0.06700
H991        H  0.38126997  0.61669404  0.29637245     0.05800
H992        H  0.25926149  0.57572302  0.23334226     0.09200
Br993      Br  0.39674475  0.54976099  0.35283981    -0.06400
Br994      Br  0.26076442  0.66917776  0.41437457    -0.03300
Br995      Br  0.39120491  0.63727451  0.21611685    -0.00500
Br996      Br  0.25423375  0.54717272  0.31225509    -0.04900
C997        C  0.78465354  0.80240397  0.70289620    -0.12300
C998        C  0.78534473  0.83991026  0.68723347     0.03200
C999        C  0.78489897  0.84479924  0.64730303    -0.12800
C1000       C  0.78293997  0.81279406  0.62283784     0.18100
C1001       C  0.77992611  0.77556132  0.63856575    -0.09800
C1002       C  0.78084539  0.77069346  0.67818553    -0.02800
H1003       H  0.78796188  0.87343366  0.63528548     0.04600
C1004       C  0.79262163  0.81719403  0.58212942     0.20000
H1005       H  0.77925921  0.74171723  0.68973579     0.09800
C1006       C  0.83177210  0.82041954  0.57336212    -0.16200
C1007       C  0.84457775  0.81336745  0.53631605     0.02800
C1008       C  0.81780486  0.80348612  0.50725877    -0.11500
C1009       C  0.77821691  0.80325992  0.51532384    -0.01500
C1010       C  0.76543680  0.81051115  0.55257874    -0.06700
H1011       H  0.85283047  0.82502371  0.59615890     0.05800
H1012       H  0.75751052  0.79513649  0.49326663     0.09200
Br1013     Br  0.77811333  0.72998840  0.60730341    -0.06400
Br1014     Br  0.79057303  0.88496860  0.71851375    -0.03300
Br1015     Br  0.89936028  0.81119005  0.52867717    -0.00500
Br1016     Br  0.71126930  0.80820230  0.56274754    -0.04900
C1017       C  0.81326565  0.70818582  0.80053825    -0.12300
C1018       C  0.84725357  0.69074921  0.78655034     0.03200
C1019       C  0.85185884  0.65051999  0.78878593    -0.12800
C1020       C  0.82255796  0.62752407  0.80402298     0.18100
C1021       C  0.78933516  0.64510303  0.81890587    -0.09800
C1022       C  0.78517562  0.68490879  0.81748885    -0.02800
H1023       H  0.87767657  0.63711874  0.77764831     0.04600
C1024       C  0.82525468  0.58510433  0.80389063     0.20000
H1025       H  0.75849423  0.69738217  0.82764374     0.09800
C1026       C  0.84120453  0.56666115  0.83609977    -0.16200
C1027       C  0.83125942  0.52865130  0.84485647     0.02800
C1028       C  0.80445053  0.50875507  0.82116219    -0.11500
C1029       C  0.79210448  0.52597550  0.78659028    -0.01500
C1030       C  0.80291665  0.56375049  0.77759909    -0.06700
H1031       H  0.85836100  0.58305435  0.85648105     0.05800
H1032       H  0.77195651  0.51103201  0.76790699     0.09200
Br1033     Br  0.74742434  0.61579906  0.83948607    -0.06400
Br1034     Br  0.88789262  0.72034581  0.76417611    -0.03300
Br1035     Br  0.85044311  0.50861217  0.89287039    -0.00500
Br1036     Br  0.78287110  0.58733645  0.73171223    -0.04900
C1037       C  0.52443924  0.83580387  0.80512483    -0.12300
C1038       C  0.54621058  0.80365891  0.79377180     0.03200
C1039       C  0.58437754  0.79958754  0.80608898    -0.12800
C1040       C  0.60157222  0.82647805  0.83100789     0.18100
C1041       C  0.57904198  0.85760644  0.84438390    -0.09800
C1042       C  0.54073581  0.86200089  0.83140720    -0.02800
H1043       H  0.60120642  0.77589822  0.79479422     0.04600
C1044       C  0.64384910  0.82309020  0.83826262     0.20000
H1045       H  0.52439414  0.88707280  0.84028157     0.09800
C1046       C  0.66808454  0.85375763  0.82793681    -0.16200
C1047       C  0.70768373  0.84779335  0.82304524     0.02800
C1048       C  0.72307816  0.81033388  0.82608630    -0.11500
C1049       C  0.70002500  0.78100949  0.84140834    -0.01500
C1050       C  0.66084134  0.78724034  0.84797262    -0.06700
H1051       H  0.65599424  0.88176850  0.82097745     0.05800
H1052       H  0.71148592  0.75213261  0.84516432     0.09200
Br1053     Br  0.59916127  0.89529599  0.87950492    -0.06400
Br1054     Br  0.52538358  0.76472972  0.76077817    -0.03300
Br1055     Br  0.73962244  0.89119858  0.81167133    -0.00500
Br1056     Br  0.63136840  0.74473079  0.86721942    -0.04900
loop_ 
_geom_bond_atom_site_label_1 
_geom_bond_atom_site_label_2 
_geom_bond_distance 
_geom_bond_site_symmetry_2 
_ccdc_geom_bond_type 
C1            N2   1.360       .  A
C1            N6   1.357       .  A
C1         C1048   1.478       .  S
N2            C3   1.357       .  A
C3            N4   1.358       .  A
C3          C997   1.473       .  S
N4            C5   1.354       .  A
C5            N6   1.358       .  A
C5         C1017   1.477       .  S
C7            N8   1.353       .  A
C7           N12   1.355       .  A
C7          C948   1.468       .  S
N8            C9   1.352       .  A
C9           N10   1.362       .  A
C9          C968   1.484       .  S
N10          C11   1.363       .  A
C11          N12   1.360       .  A
C11         C988   1.487       .  S
C13          N14   1.357       .  A
C13          N18   1.363       .  A
C13         C917   1.500       .  S
N14          C15   1.360       .  A
C15          N16   1.357       .  A
C15         C888   1.495       .  S
N16          C17   1.360       .  A
C17          N18   1.361       .  A
C17         C908   1.501       .  S
C19          N20   1.361       .  A
C19          N24   1.361       .  A
C19         C837   1.500       .  S
N20          C21   1.363       .  A
C21          N22   1.355       .  A
C21         C828   1.498       .  S
N22          C23   1.359       .  A
C23          N24   1.360       .  A
C23         C857   1.491       .  S
C25          N26   1.358       .  A
C25          N30   1.353       .  A
C25         C757   1.480       .  S
N26          C27   1.356       .  A
C27          N28   1.358       .  A
C27         C797   1.468       .  S
N28          C29   1.354       .  A
C29          N30   1.358       .  A
C29         C777   1.488       .  S
C31          N32   1.364       .  A
C31          N36   1.365       .  A
C31         C697   1.508       .  S
N32          C33   1.357       .  A
C33          N34   1.362       .  A
C33         C717   1.508       .  S
N34          C35   1.363       .  A
C35          N36   1.367       .  A
C35         C737   1.501       .  S
C37          N38   1.354       .  A
C37          N42   1.354       .  A
C37         C688   1.475       .  S
N38          C39   1.356       .  A
C39          N40   1.364       .  A
C39         C657   1.489       .  S
N40          C41   1.365       .  A
C41          N42   1.354       .  A
C41         C648   1.488       .  S
O43         Mg45   2.146       .  S
O43         Mg51   2.168       .  S
O43          C78   1.243       .  S
C44          O57   1.241       .  S
C44          O81   1.274       .  A
C44          H83   1.076       .  S
Mg45         O74   2.115   1_565  S
Mg45         O89   2.231       .  S
Mg45         O85   2.216   1_564  S
Mg45         O56   2.294   1_564  S
O46         Mg88   2.158       .  S
O46         Mg71   2.145   1_655  S
O46          C67   1.242       .  S
O47          C78   1.276       .  A
O47         Mg71   2.296   1_565  S
C48          C95   1.482       .  S
C48          O50   1.282       .  A
C48          O62   1.267       .  A
O49          C77   1.274       .  A
O49         Mg51   2.318   1_545  S
O50         Mg82   2.337       .  S
Mg51         O57   2.117   1_565  S
Mg51         O65   2.366       .  S
Mg51         O53   2.507       .  S
C52         C369   1.500       .  S
C52          O90   1.267       .  A
C52          O58   1.295       .  A
O53          C60   1.300       .  A
H54          C67   1.083       .  S
C55          O69   1.241       .  S
C55          O70   1.273       .  A
C55          H80   1.079       .  S
O56          C79   1.275       .  A
O57         Mg71   2.115       .  S
O58         Mg88   2.476       .  S
C59         C101   1.483       .  S
C59          O72   1.284       .  A
C59          O64   1.263       .  A
C60         C237   1.509       .  S
C60          O87   1.265       .  A
Mg61         O68   2.131       .  S
Mg61         O69   2.110   1_556  S
Mg61         O62   2.250       .  S
Mg61         O63   2.296   1_456  S
Mg61         O90   2.214   1_456  S
O63          C67   1.275       .  A
O64         Mg71   2.234   1_655  S
O65          C84   1.289       .  A
O66          C86   1.290       .  A
O66         Mg82   2.439       .  S
O68         Mg82   2.160       .  S
O68          C79   1.243       .  S
O69         Mg88   2.116   1_455  S
O70         Mg82   2.309   1_554  S
Mg71         O87   2.218   1_545  S
O72         Mg88   2.340       .  S
H73          C78   1.081       .  S
O74         Mg82   2.125   1_554  S
O74          C77   1.240       .  S
H75          C77   1.081       .  S
H76          C79   1.083       .  S
O81         Mg88   2.309   1_455  S
C84         C105   1.488       .  S
C84          O89   1.263       .  A
O85          C86   1.265       .  A
C86         C435   1.489       .  S
C91          N92   1.362       .  A
C91          N96   1.365       .  A
C91         C617   1.473       .  S
N92          C93   1.357   1_556  A
C93          N94   1.360       .  A
C93         C312   1.476       .  S
N94          C95   1.365   1_554  A
C95          N96   1.354       .  A
C97          N98   1.364       .  A
C97         N102   1.359       .  A
C97         C788   1.477       .  S
N98          C99   1.361   1_655  A
C99         N100   1.368       .  A
C99         C191   1.490       .  S
N100        C101   1.372   1_455  A
C101        N102   1.348       .  A
C103        N104   1.359       .  A
C103        N108   1.366       .  A
C103        C937   1.462       .  S
N104        C105   1.348       .  A
C105        N106   1.373   1_565  A
N106        C107   1.368       .  A
C107        N108   1.362   1_545  A
C107        C389   1.496       .  S
O109       Mg111   2.150       .  S
O109       Mg117   2.157       .  S
O109        C144   1.241       .  S
C110        O123   1.240       .  S
C110        O147   1.275       .  A
C110        H149   1.084       .  S
Mg111       O140   2.113       .  S
Mg111       O155   2.258       .  S
Mg111       O151   2.225       .  S
Mg111       O122   2.292       .  S
O112       Mg154   2.148       .  S
O112       Mg137   2.126       .  S
O112        C133   1.242       .  S
O113        C144   1.275       .  A
O113       Mg137   2.301       .  S
C114        C159   1.491       .  S
C114        O116   1.288       .  A
C114        O128   1.262       .  A
O115        C143   1.275       .  A
O115       Mg117   2.321       .  S
O116       Mg148   2.377       .  S
Mg117       O123   2.128       .  S
Mg117       O131   2.340       .  S
Mg117       O119   2.491       .  S
C118        C501   1.494       .  S
C118        O156   1.265       .  A
C118        O124   1.292       .  A
O119        C126   1.297       .  A
H120        C133   1.082       .  S
C121        O135   1.240       .  S
C121        O136   1.272       .  A
C121        H146   1.072       .  S
O122        C145   1.274       .  A
O123       Mg137   2.109       .  S
O124       Mg154   2.455       .  S
C125        C171   1.479       .  S
C125        O138   1.282       .  A
C125        O130   1.265       .  A
C126        C225   1.502   1_655  S
C126        O153   1.262       .  A
Mg127       O134   2.131       .  S
Mg127       O135   2.112       .  S
Mg127       O128   2.225       .  S
Mg127       O129   2.293       .  S
Mg127       O156   2.212       .  S
O129        C133   1.275       .  A
O130       Mg137   2.250       .  S
O131        C150   1.285       .  A
O132        C152   1.296       .  A
O132       Mg148   2.469       .  S
O134       Mg148   2.160       .  S
O134        C145   1.242       .  S
O135       Mg154   2.113       .  S
O136       Mg148   2.293       .  S
Mg137       O153   2.193       .  S
O138       Mg154   2.330       .  S
H139        C144   1.082       .  S
O140       Mg148   2.136       .  S
O140        C143   1.240       .  S
H141        C143   1.076       .  S
H142        C145   1.084       .  S
O147       Mg154   2.324       .  S
C150        C165   1.483       .  S
C150        O155   1.268       .  A
O151        C152   1.268       .  A
C152        C363   1.498       .  S
C157        N158   1.363       .  A
C157        N162   1.363       .  A
C157        C808   1.463       .  S
N158        C159   1.352       .  A
C159        N160   1.372       .  A
N160        C161   1.367       .  A
C161        N162   1.357       .  A
C161        C480   1.489       .  S
C163        N164   1.362       .  A
C163        N168   1.367       .  A
C163        C957   1.477   1_655  S
N164        C165   1.352       .  A
C165        N166   1.367       .  A
N166        C167   1.363       .  A
C167        N168   1.363       .  A
C167        C348   1.487       .  S
C169        N170   1.357       .  A
C169        N174   1.365       .  A
C169       C1008   1.463       .  S
N170        C171   1.349       .  A
C171        N172   1.369       .  A
N172        C173   1.366       .  A
C173        N174   1.362       .  A
C173        C216   1.485       .  S
O175       Mg177   2.099   1_655  S
O175       Mg183   2.125       .  S
O175        C210   1.239   1_655  S
C176        O189   1.241       .  S
C176        O213   1.278   1_655  A
C176        H215   1.078       .  S
Mg177       O206   2.104       .  S
Mg177       O221   2.228   1_455  S
Mg177       O217   2.190       .  S
Mg177       O188   2.328       .  S
O178       Mg220   2.132       .  S
O178       Mg203   2.100       .  S
O178        C199   1.240       .  S
O179        C210   1.276       .  A
O179       Mg203   2.338       .  S
C180        C561   1.490       .  S
C180        O182   1.285       .  A
C180        O194   1.265       .  A
O181        C209   1.277       .  A
O181       Mg183   2.325       .  S
O182       Mg214   2.383       .  S
Mg183       O189   2.207       .  S
Mg183       O197   2.389       .  S
Mg183       O185   2.440       .  S
C184        C231   1.483       .  S
C184        O222   1.249       .  A
C184        O190   1.286       .  A
O185        C192   1.284       .  A
H186        C199   1.081       .  S
C187        O201   1.243       .  S
C187        O202   1.278       .  A
C187        H212   1.080       .  S
O188        C211   1.274       .  A
O189       Mg203   2.098   1_655  S
O190       Mg220   2.437       .  S
C191        O204   1.286       .  A
C191        O196   1.262   1_545  A
C192        C239   1.486       .  S
C192        O219   1.243       .  A
Mg193       O200   2.094       .  S
Mg193       O201   2.098       .  S
Mg193       O194   2.251       .  S
Mg193       O195   2.332       .  S
Mg193       O222   2.185       .  S
O195        C199   1.276       .  A
O196       Mg203   2.232       .  S
O197        C216   1.287       .  A
O198        C218   1.283       .  A
O198       Mg214   2.423       .  S
O200       Mg214   2.132       .  S
O200        C211   1.239       .  S
O201       Mg220   2.195       .  S
O202       Mg214   2.322       .  S
Mg203       O219   2.183   1_455  S
O204       Mg220   2.394   1_545  S
H205        C210   1.081       .  S
O206       Mg214   2.197       .  S
O206        C209   1.241   1_455  S
H207        C209   1.079       .  S
H208        C211   1.082       .  S
O213       Mg220   2.325       .  S
C216        O221   1.262       .  A
O217        C218   1.245       .  A
C218        C227   1.483       .  S
C223        N224   1.374       .  A
C223        N228   1.356       .  A
C223        C637   1.468       .  S
N224        C225   1.371       .  A
C225        N226   1.372       .  A
N226        C227   1.364       .  A
C227        N228   1.338       .  A
C229        N230   1.358       .  A
C229        N234   1.373       .  A
C229        C848   1.468       .  S
N230        C231   1.343       .  A
C231        N232   1.366       .  A
N232        C233   1.368       .  A
C233        N234   1.369       .  A
C233        C510   1.504       .  S
C235        N236   1.375       .  A
C235        N240   1.356   1_455  A
C235        C897   1.469   1_455  S
N236        C237   1.371       .  A
C237        N238   1.372       .  A
N238        C239   1.369   1_455  A
C239        N240   1.340       .  A
O241       Mg243   2.103       .  S
O241       Mg249   2.125       .  S
O241        C276   1.236       .  S
C242        O255   1.242       .  S
C242        O279   1.279       .  A
C242        H281   1.082       .  S
Mg243       O272   2.109       .  S
Mg243       O287   2.266       .  S
Mg243       O283   2.191       .  S
Mg243       O254   2.303       .  S
O244       Mg286   2.133       .  S
O244       Mg269   2.098       .  S
O244        C265   1.239       .  S
O245        C276   1.274       .  A
O245       Mg269   2.326       .  S
C246        C495   1.496       .  S
C246        O248   1.285       .  A
C246        O260   1.264       .  A
O247        C275   1.279       .  A
O247       Mg249   2.326       .  S
O248       Mg280   2.394       .  S
Mg249       O255   2.207       .  S
Mg249       O263   2.381   1_556  S
Mg249       O251   2.441       .  S
C250        C293   1.485       .  S
C250        O288   1.254       .  A
C250        O256   1.287       .  A
O251        C258   1.284       .  A
H252        C265   1.080       .  S
C253        O267   1.244       .  S
C253        O268   1.280       .  A
C253        H278   1.083       .  S
O254        C277   1.271       .  A
O255       Mg269   2.107       .  S
O256       Mg286   2.456       .  S
C257        C429   1.503       .  S
C257        O270   1.286       .  A
C257        O262   1.267       .  A
C258        C299   1.479       .  S
C258        O285   1.250       .  A
Mg259       O266   2.096       .  S
Mg259       O267   2.106       .  S
Mg259       O260   2.243       .  S
Mg259       O261   2.316       .  S
Mg259       O288   2.177       .  S
O261        C265   1.274       .  A
O262       Mg269   2.263       .  S
O263        C282   1.285       .  A
O264        C284   1.288       .  A
O264       Mg280   2.457       .  S
O266       Mg280   2.132       .  S
O266        C277   1.237       .  S
O267       Mg286   2.197       .  S
O268       Mg280   2.327       .  S
Mg269       O285   2.172       .  S
O270       Mg286   2.395       .  S
H271        C276   1.081       .  S
O272       Mg280   2.198       .  S
O272        C275   1.243       .  S
H273        C275   1.082       .  S
H274        C277   1.074       .  S
O279       Mg286   2.332       .  S
C282        C357   1.496       .  S
C282        O287   1.269   1_554  A
O283        C284   1.258       .  A
C284        C305   1.487       .  S
C289        N290   1.361       .  A
C289        N294   1.365       .  A
C289        C597   1.469       .  S
N290        C291   1.357       .  A
C291        N292   1.362       .  A
C291        C444   1.477       .  S
N292        C293   1.368       .  A
C293        N294   1.355       .  A
C295        N296   1.366       .  A
C295        N300   1.364       .  A
C295        C768   1.482       .  S
N296        C297   1.361       .  A
C297        N298   1.362       .  A
C297        C378   1.482       .  S
N298        C299   1.363       .  A
C299        N300   1.346       .  A
C301        N302   1.367       .  A
C301        N306   1.368       .  A
C301       C1028   1.480       .  S
N302        C303   1.359       .  A
C303        N304   1.359       .  A
C303        C323   1.484       .  S
N304        C305   1.365       .  A
C305        N306   1.357       .  A
O307       Mg309   2.098       .  S
O307       Mg315   2.134       .  S
O307        C342   1.241       .  S
C308        O321   1.241   1_556  S
C308        O345   1.275       .  A
C308        H347   1.080       .  S
Mg309       O338   2.093       .  S
Mg309       O353   2.232       .  S
Mg309       O349   2.184       .  S
Mg309       O320   2.347       .  S
O310       Mg352   2.137       .  S
O310       Mg335   2.088   1_556  S
O310        C331   1.238   1_556  S
O311        C342   1.276       .  A
O311       Mg335   2.329       .  S
C312        O314   1.282       .  A
C312        O326   1.268   1_455  A
O313        C341   1.277       .  A
O313       Mg315   2.321       .  S
O314       Mg346   2.343   1_455  S
Mg315       O321   2.186       .  S
Mg315       O329   2.378       .  S
Mg315       O317   2.423       .  S
C316        C371   1.473       .  S
C316        O354   1.246       .  A
C316        O322   1.278       .  A
O317        C324   1.284       .  A
H318        C331   1.083       .  S
C319        O333   1.241       .  S
C319        O334   1.279   1_556  A
C319        H344   1.077       .  S
O320        C343   1.275       .  A
O321       Mg335   2.100       .  S
O322       Mg352   2.395       .  S
C323        O336   1.283       .  A
C323        O328   1.268       .  A
C324        C359   1.482       .  S
C324        O351   1.251       .  A
Mg325       O333   2.111   1_554  S
Mg325       O326   2.256       .  S
Mg325       O327   2.330       .  S
Mg325       O354   2.195   1_554  S
Mg325       O332   2.171       .  S
O327        C331   1.274       .  A
O328       Mg335   2.257   1_556  S
O329        C348   1.285       .  A
O330        C350   1.279       .  A
O330       Mg346   2.415       .  S
O332       Mg346   2.200       .  S
O332        C343   1.267       .  A
O333       Mg352   2.213       .  S
O334       Mg346   2.324       .  S
Mg335       O351   2.188       .  S
O336       Mg352   2.368       .  S
H337        C342   1.083       .  S
O338       Mg346   2.183       .  S
O338        C341   1.242       .  S
H339        C341   1.084       .  S
H340        C343   1.084       .  S
O345       Mg352   2.308       .  S
C348        O353   1.262       .  A
O349        C350   1.244       .  A
C350        C365   1.476       .  S
C355        N356   1.371       .  A
C355        N360   1.359       .  A
C355        C877   1.464       .  S
N356        C357   1.367       .  A
C357        N358   1.366       .  A
N358        C359   1.363       .  A
C359        N360   1.344       .  A
C361        N362   1.375       .  A
C361        N366   1.356       .  A
C361        C868   1.466       .  S
N362        C363   1.371       .  A
C363        N364   1.366       .  A
N364        C365   1.362       .  A
C365        N366   1.340       .  A
C367        N368   1.378       .  A
C367        N372   1.356   1_554  A
C367        C728   1.472   1_554  S
N368        C369   1.374       .  A
C369        N370   1.365   1_554  A
N370        C371   1.359       .  A
C371        N372   1.339       .  A
O373       Mg375   2.085   1_565  S
O373       Mg381   2.133       .  S
O373        C408   1.240   1_565  S
C374        O387   1.241       .  S
C374        O411   1.277   1_565  A
C374        H413   1.078       .  S
Mg375       O404   2.101       .  S
Mg375       O419   2.204   1_545  S
Mg375       O415   2.185       .  S
Mg375       O386   2.333       .  S
O376       Mg418   2.127       .  S
O376       Mg401   2.097       .  S
O376        C397   1.239       .  S
O377        C408   1.275       .  A
O377       Mg401   2.336       .  S
C378        O380   1.283       .  A
C378        O392   1.265       .  A
O379        C407   1.277       .  A
O379       Mg381   2.318       .  S
O380       Mg412   2.361       .  S
Mg381       O387   2.210       .  S
Mg381       O395   2.380       .  S
Mg381       O383   2.418       .  S
C382        C431   1.484       .  S
C382        O420   1.249       .  A
C382        O388   1.286       .  A
O383        C390   1.278       .  A
H384        C397   1.082       .  S
C385        O399   1.243       .  S
C385        O400   1.279       .  A
C385        H410   1.079       .  S
O386        C409   1.274       .  A
O387       Mg401   2.095   1_565  S
O388       Mg418   2.438       .  S
C389        O402   1.289       .  A
C389        O394   1.266   1_554  A
C390        C437   1.481       .  S
C390        O417   1.245       .  A
Mg391       O398   2.103       .  S
Mg391       O399   2.103       .  S
Mg391       O392   2.240       .  S
Mg391       O393   2.329       .  S
Mg391       O420   2.192       .  S
O393        C397   1.275       .  A
O394       Mg401   2.258       .  S
O395        C414   1.284       .  A
O396        C416   1.284       .  A
O396       Mg412   2.429       .  S
O398       Mg412   2.138       .  S
O398        C409   1.238       .  S
O399       Mg418   2.208       .  S
O400       Mg412   2.327       .  S
Mg401       O417   2.186   1_545  S
O402       Mg418   2.399   1_554  S
H403        C408   1.082       .  S
O404       Mg412   2.179       .  S
O404        C407   1.242   1_545  S
H405        C407   1.082       .  S
H406        C409   1.083       .  S
O411       Mg418   2.321       .  S
C414        C567   1.480       .  S
C414        O419   1.258       .  A
O415        C416   1.244       .  A
C416        C423   1.482       .  S
C421        N422   1.353       .  A
C421        N426   1.373       .  A
C421        C708   1.464       .  S
N422        C423   1.337       .  A
C423        N424   1.369       .  A
N424        C425   1.374       .  A
C425        N426   1.370       .  A
C425        C521   1.510       .  S
C427        N428   1.373       .  A
C427        N432   1.359       .  A
C427        C817   1.467       .  S
N428        C429   1.368       .  A
C429        N430   1.369       .  A
N430        C431   1.365       .  A
C431        N432   1.343       .  A
C433        N434   1.370       .  A
C433        N438   1.360   1_545  A
C433        C668   1.463       .  S
N434        C435   1.365       .  A
C435        N436   1.365       .  A
N436        C437   1.362   1_545  A
C437        N438   1.344       .  A
O439       Mg441   2.086       .  S
O439       Mg447   2.129       .  S
O439        C474   1.240       .  S
C440        O453   1.243       .  S
C440        O477   1.280       .  A
C440        H479   1.082       .  S
Mg441       O470   2.098       .  S
Mg441       O485   2.253       .  S
Mg441       O481   2.184       .  S
Mg441       O452   2.338       .  S
O442       Mg484   2.130       .  S
O442       Mg467   2.100       .  S
O442        C463   1.237       .  S
O443        C474   1.276       .  A
O443       Mg467   2.329       .  S
C444        O446   1.281       .  A
C444        O458   1.261       .  A
O445        C473   1.276       .  A
O445       Mg447   2.319       .  S
O446       Mg478   2.361       .  S
Mg447       O453   2.213       .  S
Mg447       O461   2.383       .  S
Mg447       O449   2.417       .  S
C448        C497   1.482       .  S
C448        O486   1.249       .  A
C448        O454   1.287       .  A
O449        C456   1.282       .  A
H450        C463   1.082       .  S
C451        O465   1.242       .  S
C451        O466   1.277       .  A
C451        H476   1.083       .  S
O452        C475   1.275       .  A
O453       Mg467   2.103       .  S
O454       Mg484   2.449       .  S
C455        C555   1.480       .  S
C455        O468   1.283       .  A
C455        O460   1.264       .  A
C456        C491   1.482       .  S
C456        O483   1.249       .  A
Mg457       O464   2.097       .  S
Mg457       O465   2.100       .  S
Mg457       O458   2.218       .  S
Mg457       O459   2.324       .  S
Mg457       O486   2.185       .  S
O459        C463   1.273       .  A
O460       Mg467   2.236       .  S
O461        C480   1.287       .  A
O462        C482   1.278       .  A
O462       Mg478   2.409       .  S
O464       Mg478   2.140       .  S
O464        C475   1.238       .  S
O465       Mg484   2.173       .  S
O466       Mg478   2.319       .  S
Mg467       O483   2.191       .  S
O468       Mg484   2.365       .  S
H469        C474   1.082       .  S
O470       Mg478   2.206       .  S
O470        C473   1.240       .  S
H471        C473   1.079       .  S
H472        C475   1.081       .  S
O477       Mg484   2.333       .  S
C480        O485   1.265       .  A
O481        C482   1.244       .  A
C482        C503   1.477       .  S
C487        N488   1.373       .  A
C487        N492   1.357       .  A
C487        C928   1.467       .  S
N488        C489   1.369       .  A
C489        N490   1.369       .  A
C489        C546   1.505       .  S
N490        C491   1.365       .  A
C491        N492   1.343       .  A
C493        N494   1.370       .  A
C493        N498   1.360       .  A
C493        C677   1.460       .  S
N494        C495   1.366       .  A
C495        N496   1.366       .  A
N496        C497   1.364       .  A
C497        N498   1.343       .  A
C499        N500   1.373       .  A
C499        N504   1.357       .  A
C499        C748   1.466       .  S
N500        C501   1.369       .  A
C501        N502   1.367       .  A
N502        C503   1.363       .  A
C503        N504   1.341       .  A
O505       Mg507   2.098       .  S
O505       Mg513   2.132       .  S
O505        C540   1.238       .  S
C506        O519   1.243       .  S
C506        O543   1.279       .  A
C506        H545   1.083       .  S
Mg507       O536   2.108       .  S
Mg507       O551   2.269       .  S
Mg507       O547   2.173       .  S
Mg507       O518   2.312       .  S
O508       Mg550   2.129       .  S
O508       Mg533   2.103       .  S
O508        C529   1.238       .  S
O509        C540   1.272       .  A
O509       Mg533   2.315       .  S
C510        O512   1.286       .  A
C510        O524   1.269       .  A
O511        C539   1.278       .  A
O511       Mg513   2.328       .  S
O512       Mg544   2.395       .  S
Mg513       O519   2.207       .  S
Mg513       O527   2.403       .  S
Mg513       O515   2.451       .  S
C514        C563   1.479       .  S
C514        O552   1.254       .  A
C514        O520   1.287       .  A
O515        C522   1.288       .  A
H516        C529   1.073       .  S
C517        O531   1.243       .  S
C517        O532   1.280       .  A
C517        H542   1.083       .  S
O518        C541   1.273       .  A
O519       Mg533   2.112       .  S
O520       Mg550   2.444       .  S
C521        O534   1.287       .  A
C521        O526   1.267   1_545  A
C522        C569   1.477       .  S
C522        O549   1.251       .  A
Mg523       O530   2.091       .  S
Mg523       O531   2.113       .  S
Mg523       O524   2.273       .  S
Mg523       O525   2.315       .  S
Mg523       O552   2.168       .  S
O525        C529   1.274       .  A
O526       Mg533   2.266       .  S
O527        C546   1.287       .  A
O528        C548   1.286       .  A
O528       Mg544   2.446       .  S
O530       Mg544   2.122       .  S
O530        C541   1.237       .  S
O531       Mg550   2.208       .  S
O532       Mg544   2.329       .  S
Mg533       O549   2.162       .  S
O534       Mg550   2.412   1_545  S
H535        C540   1.084       .  S
O536       Mg544   2.205       .  S
O536        C539   1.242       .  S
H537        C539   1.083       .  S
H538        C541   1.082       .  S
O543       Mg550   2.330       .  S
C546        O551   1.269       .  A
O547        C548   1.253       .  A
C548        C557   1.479       .  S
C553        N554   1.365       .  A
C553        N558   1.363       .  A
C553        C977   1.475       .  S
N554        C555   1.359       .  A
C555        N556   1.360       .  A
N556        C557   1.366       .  A
C557        N558   1.351       .  A
C559        N560   1.368       .  A
C559        N564   1.360       .  A
C559        C577   1.469   1_565  S
N560        C561   1.363       .  A
C561        N562   1.362       .  A
N562        C563   1.368       .  A
C563        N564   1.350       .  A
C565        N566   1.365       .  A
C565        N570   1.362       .  A
C565       C1037   1.475       .  S
N566        C567   1.362       .  A
C567        N568   1.362       .  A
N568        C569   1.368       .  A
C569        N570   1.350       .  A
C571        N572   1.360       .  A
C571        N576   1.357       .  A
C571        C608   1.493       .  S
N572        C573   1.358       .  A
C573        N574   1.354       .  A
C573        C588   1.483       .  S
N574        C575   1.358       .  A
C575        N576   1.357       .  A
C575        C628   1.476       .  S
C577        C578   1.411       .  A
C577        C582   1.404       .  A
C578        C579   1.397       .  A
C578       Br594   1.921       .  S
C579        H583   1.084       .  S
C579        C580   1.399       .  A
C580        C584   1.474       .  S
C580        C581   1.407       .  A
C581        C582   1.401       .  A
C581       Br593   1.916       .  S
C582        H585   1.083       .  S
C584        C586   1.400       .  A
C584        C590   1.405       .  A
C586        H591   1.083       .  S
C586        C587   1.403       .  A
C587        C588   1.416       .  A
C587       Br595   1.920       .  S
C588        C589   1.406       .  A
C589        H592   1.083       .  S
C589        C590   1.393       .  A
C590       Br596   1.921       .  S
C597        C598   1.400       .  A
C597        C602   1.404       .  A
C598        C599   1.396       .  A
C598       Br614   1.902       .  S
C599        H603   1.084       .  S
C599        C600   1.403       .  A
C600        C604   1.475       .  S
C600        C601   1.406       .  A
C601        C602   1.398       .  A
C601       Br613   1.917       .  S
C602        H605   1.084       .  S
C604        C606   1.399       .  A
C604        C610   1.401       .  A
C606        H611   1.084       .  S
C606        C607   1.397       .  A
C607        C608   1.422       .  A
C607       Br615   1.922       .  S
C608        C609   1.412       .  A
C609        H612   1.083       .  S
C609        C610   1.398       .  A
C610       Br616   1.917       .  S
C617        C618   1.415       .  A
C617        C622   1.403       .  A
C618        C619   1.395       .  A
C618       Br634   1.916       .  S
C619        H623   1.084       .  S
C619        C620   1.396       .  A
C620        C624   1.473       .  S
C620        C621   1.407       .  A
C621        C622   1.398       .  A
C621       Br633   1.916       .  S
C622        H625   1.083       .  S
C624        C626   1.402       .  A
C624        C630   1.409       .  A
C626        H631   1.083       .  S
C626        C627   1.402       .  A
C627        C628   1.412       .  A
C627       Br635   1.918       .  S
C628        C629   1.403       .  A
C629        H632   1.083       .  S
C629        C630   1.390       .  A
C630       Br636   1.923       .  S
C637        C638   1.409       .  A
C637        C642   1.407       .  A
C638        C639   1.402       .  A
C638       Br654   1.916       .  S
C639        H643   1.083       .  S
C639        C640   1.402       .  A
C640        C644   1.479       .  S
C640        C641   1.407       .  A
C641        C642   1.400       .  A
C641       Br653   1.920       .  S
C642        H645   1.084       .  S
C644        C646   1.398       .  A
C644        C650   1.408       .  A
C646        H651   1.084       .  S
C646        C647   1.403       .  A
C647        C648   1.422       .  A
C647       Br655   1.920       .  S
C648        C649   1.403       .  A
C649        H652   1.083       .  S
C649        C650   1.395       .  A
C650       Br656   1.915       .  S
C657        C658   1.420       .  A
C657        C662   1.411       .  A
C658        C659   1.394       .  A
C658       Br674   1.925       .  S
C659        H663   1.084       .  S
C659        C660   1.399       .  A
C660        C664   1.478       .  S
C660        C661   1.404       .  A
C661        C662   1.403       .  A
C661       Br673   1.915       .  S
C662        H665   1.083       .  S
C664        C666   1.403       .  A
C664        C670   1.410       .  A
C666        H671   1.084       .  S
C666        C667   1.398   1_565  A
C667        C668   1.407       .  A
C667       Br675   1.918       .  S
C668        C669   1.403   1_545  A
C669        H672   1.084       .  S
C669        C670   1.398       .  A
C670       Br676   1.920       .  S
C677        C678   1.404       .  A
C677        C682   1.403       .  A
C678        C679   1.397       .  A
C678       Br694   1.920       .  S
C679        H683   1.083       .  S
C679        C680   1.404       .  A
C680        C684   1.480       .  S
C680        C681   1.409       .  A
C681        C682   1.399       .  A
C681       Br693   1.921       .  S
C682        H685   1.084       .  S
C684        C686   1.404       .  A
C684        C690   1.403       .  A
C686        H691   1.083       .  S
C686        C687   1.395       .  A
C687        C688   1.411       .  A
C687       Br695   1.922       .  S
C688        C689   1.405       .  A
C689        H692   1.081       .  S
C689        C690   1.397       .  A
C690       Br696   1.909       .  S
C697        C698   1.422       .  A
C697        C702   1.408       .  A
C698        C699   1.408       .  A
C698       Br714   1.913       .  S
C699        H703   1.084       .  S
C699        C700   1.402       .  A
C700        C704   1.483       .  S
C700        C701   1.404       .  A
C701        C702   1.391       .  A
C701       Br713   1.925       .  S
C702        H705   1.073       .  S
C704        C706   1.403       .  A
C704        C710   1.411       .  A
C706        H711   1.083       .  S
C706        C707   1.400       .  A
C707        C708   1.408       .  A
C707       Br715   1.919       .  S
C708        C709   1.407       .  A
C709        H712   1.084       .  S
C709        C710   1.401       .  A
C710       Br716   1.922       .  S
C717        C718   1.426       .  A
C717        C722   1.411       .  A
C718        C719   1.402       .  A
C718       Br734   1.908       .  S
C719        H723   1.084       .  S
C719        C720   1.395       .  A
C720        C724   1.487       .  S
C720        C721   1.410       .  A
C721        C722   1.401       .  A
C721       Br733   1.919       .  S
C722        H725   1.083       .  S
C724        C726   1.404       .  A
C724        C730   1.407       .  A
C726        H731   1.083       .  S
C726        C727   1.403       .  A
C727        C728   1.408       .  A
C727       Br735   1.916       .  S
C728        C729   1.410   1_556  A
C729        H732   1.084       .  S
C729        C730   1.404   1_554  A
C730       Br736   1.920       .  S
C737        C738   1.417       .  A
C737        C742   1.415       .  A
C738        C739   1.399       .  A
C738       Br754   1.917       .  S
C739        H743   1.084       .  S
C739        C740   1.402       .  A
C740        C744   1.490       .  S
C740        C741   1.407       .  A
C741        C742   1.406       .  A
C741       Br753   1.919       .  S
C742        H745   1.083       .  S
C744        C746   1.406       .  A
C744        C750   1.413       .  A
C746        H751   1.083       .  S
C746        C747   1.401       .  A
C747        C748   1.408       .  A
C747       Br755   1.920       .  S
C748        C749   1.403       .  A
C749        H752   1.084       .  S
C749        C750   1.401       .  A
C750       Br756   1.920       .  S
C757        C758   1.421       .  A
C757        C762   1.405       .  A
C758        C759   1.396       .  A
C758       Br774   1.923       .  S
C759        H763   1.084       .  S
C759        C760   1.396       .  A
C760        C764   1.469       .  S
C760        C761   1.407       .  A
C761        C762   1.395       .  A
C761       Br773   1.920       .  S
C762        H765   1.084       .  S
C764        C766   1.400       .  A
C764        C770   1.405       .  A
C766        H771   1.083       .  S
C766        C767   1.401       .  A
C767        C768   1.419   1_554  A
C767       Br775   1.921   1_554  S
C768        C769   1.406   1_556  A
C769        H772   1.084   1_554  S
C769        C770   1.390       .  A
C770       Br776   1.922       .  S
C777        C778   1.422       .  A
C777        C782   1.407       .  A
C778        C779   1.400       .  A
C778       Br794   1.922       .  S
C779        H783   1.084       .  S
C779        C780   1.399       .  A
C780        C784   1.472       .  S
C780        C781   1.405       .  A
C781        C782   1.390       .  A
C781       Br793   1.921       .  S
C782        H785   1.083       .  S
C784        C786   1.399       .  A
C784        C790   1.407       .  A
C786        H791   1.084       .  S
C786        C787   1.398       .  A
C787        C788   1.416       .  A
C787       Br795   1.914       .  S
C788        C789   1.403       .  A
C789        H792   1.082       .  S
C789        C790   1.394       .  A
C790       Br796   1.921       .  S
C797        C798   1.411       .  A
C797        C802   1.400       .  A
C798        C799   1.402       .  A
C798       Br814   1.917       .  S
C799        H803   1.083       .  S
C799        C800   1.401       .  A
C800        C804   1.466       .  S
C800        C801   1.407       .  A
C801        C802   1.387       .  A
C801       Br813   1.923       .  S
C802        H805   1.083       .  S
C804        C806   1.398       .  A
C804        C810   1.405       .  A
C806        H811   1.084       .  S
C806        C807   1.393       .  A
C807        C808   1.411       .  A
C807       Br815   1.922       .  S
C808        C809   1.402       .  A
C809        H812   1.083       .  S
C809        C810   1.398       .  A
C810       Br816   1.915       .  S
C817        C818   1.408       .  A
C817        C822   1.405       .  A
C818        C819   1.401       .  A
C818       Br834   1.917       .  S
C819        H823   1.083   1_556  S
C819        C820   1.403       .  A
C820        C824   1.481   1_556  S
C820        C821   1.407       .  A
C821        C822   1.399       .  A
C821       Br833   1.919       .  S
C822        H825   1.084       .  S
C824        C826   1.398       .  A
C824        C830   1.409       .  A
C826        H831   1.084       .  S
C826        C827   1.404       .  A
C827        C828   1.426       .  A
C827       Br835   1.921       .  S
C828        C829   1.408       .  A
C829        H832   1.083       .  S
C829        C830   1.395       .  A
C830       Br836   1.923       .  S
C837        C838   1.420       .  A
C837        C842   1.416       .  A
C838        C839   1.395       .  A
C838       Br854   1.920       .  S
C839        H843   1.084       .  S
C839        C840   1.400       .  A
C840        C844   1.486   1_545  S
C840        C841   1.405       .  A
C841        C842   1.406       .  A
C841       Br853   1.917       .  S
C842        H845   1.083       .  S
C844        C846   1.405       .  A
C844        C850   1.412       .  A
C846        H851   1.084       .  S
C846        C847   1.399       .  A
C847        C848   1.408       .  A
C847       Br855   1.919       .  S
C848        C849   1.403       .  A
C849        H852   1.084       .  S
C849        C850   1.402       .  A
C850       Br856   1.919   1_565  S
C857        C858   1.415       .  A
C857        C862   1.407       .  A
C858        C859   1.400       .  A
C858       Br874   1.917       .  S
C859        H863   1.084       .  S
C859        C860   1.403       .  A
C860        C864   1.488   1_455  S
C860        C861   1.414       .  A
C861        C862   1.398       .  A
C861       Br873   1.924   1_455  S
C862        H865   1.082       .  S
C864        C866   1.404       .  A
C864        C870   1.411       .  A
C866        H871   1.083   1_655  S
C866        C867   1.398       .  A
C867        C868   1.407       .  A
C867       Br875   1.918       .  S
C868        C869   1.407       .  A
C869        H872   1.084       .  S
C869        C870   1.403       .  A
C870       Br876   1.922       .  S
C877        C878   1.408       .  A
C877        C882   1.403       .  A
C878        C879   1.398       .  A
C878       Br894   1.918       .  S
C879        H883   1.084       .  S
C879        C880   1.403       .  A
C880        C884   1.477       .  S
C880        C881   1.409       .  A
C881        C882   1.399       .  A
C881       Br893   1.920       .  S
C882        H885   1.084       .  S
C884        C886   1.399       .  A
C884        C890   1.401       .  A
C886        H891   1.084       .  S
C886        C887   1.396       .  A
C887        C888   1.421       .  A
C887       Br895   1.921       .  S
C888        C889   1.413       .  A
C889        H892   1.080       .  S
C889        C890   1.399       .  A
C890       Br896   1.915       .  S
C897        C898   1.411   1_655  A
C897        C902   1.405       .  A
C898        C899   1.397   1_455  A
C898       Br914   1.918       .  S
C899        H903   1.084       .  S
C899        C900   1.401       .  A
C900        C904   1.481       .  S
C900        C901   1.409       .  A
C901        C902   1.403       .  A
C901       Br913   1.919       .  S
C902        H905   1.084       .  S
C904        C906   1.401       .  A
C904        C910   1.400       .  A
C906        H911   1.084       .  S
C906        C907   1.398       .  A
C907        C908   1.421       .  A
C907       Br915   1.921       .  S
C908        C909   1.415       .  A
C909        H912   1.078       .  S
C909        C910   1.401       .  A
C910       Br916   1.916       .  S
C917        C918   1.423       .  A
C917        C922   1.413       .  A
C918        C919   1.397       .  A
C918       Br934   1.923       .  S
C919        H923   1.084       .  S
C919        C920   1.400       .  A
C920        C924   1.483       .  S
C920        C921   1.404       .  A
C921        C922   1.402       .  A
C921       Br933   1.915       .  S
C922        H925   1.079       .  S
C924        C926   1.404       .  A
C924        C930   1.411       .  A
C926        H931   1.084       .  S
C926        C927   1.399       .  A
C927        C928   1.410       .  A
C927       Br935   1.919       .  S
C928        C929   1.402       .  A
C929        H932   1.084       .  S
C929        C930   1.400       .  A
C930       Br936   1.920       .  S
C937        C938   1.409       .  A
C937        C942   1.403       .  A
C938        C939   1.393       .  A
C938       Br954   1.923       .  S
C939        H943   1.084       .  S
C939        C940   1.399       .  A
C940        C944   1.474       .  S
C940        C941   1.409       .  A
C941        C942   1.402       .  A
C941       Br953   1.917       .  S
C942        H945   1.083       .  S
C944        C946   1.404       .  A
C944        C950   1.409       .  A
C946        H951   1.083       .  S
C946        C947   1.402       .  A
C947        C948   1.407       .  A
C947       Br955   1.916       .  S
C948        C949   1.401       .  A
C949        H952   1.084       .  S
C949        C950   1.392       .  A
C950       Br956   1.921       .  S
C957        C958   1.414       .  A
C957        C962   1.405       .  A
C958        C959   1.398       .  A
C958       Br974   1.918       .  S
C959        H963   1.084       .  S
C959        C960   1.399       .  A
C960        C964   1.474       .  S
C960        C961   1.406       .  A
C961        C962   1.399       .  A
C961       Br973   1.917       .  S
C962        H965   1.084       .  S
C964        C966   1.399       .  A
C964        C970   1.407       .  A
C966        H971   1.083       .  S
C966        C967   1.403       .  A
C967        C968   1.420       .  A
C967       Br975   1.922       .  S
C968        C969   1.404       .  A
C969        H972   1.083       .  S
C969        C970   1.393       .  A
C970       Br976   1.922       .  S
C977        C978   1.407       .  A
C977        C982   1.408       .  A
C978        C979   1.393       .  A
C978       Br994   1.915       .  S
C979        H983   1.084       .  S
C979        C980   1.404       .  A
C980        C984   1.479       .  S
C980        C981   1.408       .  A
C981        C982   1.400       .  A
C981       Br993   1.918       .  S
C982        H985   1.084       .  S
C984        C986   1.402       .  A
C984        C990   1.406       .  A
C986        H991   1.083       .  S
C986        C987   1.399       .  A
C987        C988   1.415       .  A
C987       Br995   1.919       .  S
C988        C989   1.408       .  A
C989        H992   1.083       .  S
C989        C990   1.398       .  A
C990       Br996   1.919       .  S
C997        C998   1.410       .  A
C997       C1002   1.404       .  A
C998        C999   1.401       .  A
C998      Br1014   1.915       .  S
C999       H1003   1.083       .  S
C999       C1000   1.402       .  A
C1000      C1004   1.470       .  S
C1000      C1001   1.407       .  A
C1001      C1002   1.390       .  A
C1001     Br1013   1.922       .  S
C1002      H1005   1.084       .  S
C1004      C1006   1.399       .  A
C1004      C1010   1.407       .  A
C1006      H1011   1.084       .  S
C1006      C1007   1.392       .  A
C1007      C1008   1.408       .  A
C1007     Br1015   1.921       .  S
C1008      C1009   1.404       .  A
C1009      H1012   1.083       .  S
C1009      C1010   1.400       .  A
C1010     Br1016   1.917       .  S
C1017      C1018   1.414       .  A
C1017      C1022   1.403       .  A
C1018      C1019   1.406       .  A
C1018     Br1034   1.919       .  S
C1019      H1023   1.083       .  S
C1019      C1020   1.403       .  A
C1020      C1024   1.474       .  S
C1020      C1021   1.406       .  A
C1021      C1022   1.388       .  A
C1021     Br1033   1.922       .  S
C1022      H1025   1.083       .  S
C1024      C1026   1.397       .  A
C1024      C1030   1.406       .  A
C1026      H1031   1.084       .  S
C1026      C1027   1.398       .  A
C1027      C1028   1.417       .  A
C1027     Br1035   1.920       .  S
C1028      C1029   1.404       .  A
C1029      H1032   1.083       .  S
C1029      C1030   1.400       .  A
C1030     Br1036   1.915       .  S
C1037      C1038   1.404       .  A
C1037      C1042   1.406       .  A
C1038      C1039   1.391       .  A
C1038     Br1054   1.913       .  S
C1039      H1043   1.083       .  S
C1039      C1040   1.405       .  A
C1040      C1044   1.487       .  S
C1040      C1041   1.413       .  A
C1041      C1042   1.404       .  A
C1041     Br1053   1.919       .  S
C1042      H1045   1.083       .  S
C1044      C1046   1.407       .  A
C1044      C1050   1.412       .  A
C1046      H1051   1.082       .  S
C1046      C1047   1.399       .  A
C1047      C1048   1.406       .  A
C1047     Br1055   1.916       .  S
C1048      C1049   1.405       .  A
C1049      H1052   1.083       .  S
C1049      C1050   1.396       .  A
C1050     Br1056   1.922       .  S
