geometry optimzed in LAMMPS
_audit_creation_date              2020-11-30 
_audit_creation_method            'lammps2cif' 
_symmetry_space_group_name_H-M    'P1' 
_symmetry_Int_Tables_number       1 
_symmetry_cell_setting            triclinic 
loop_ 
_symmetry_equiv_pos_as_xyz 
  x,y,z 
_cell_length_a                    51.60672532 
_cell_length_b                    25.69380921574663 
_cell_length_c                    27.328438785498363 
_cell_angle_alpha                 90.02948361801563 
_cell_angle_beta                  89.99575597049034 
_cell_angle_gamma                 89.8768649553859 
loop_ 
_atom_site_label 
_atom_site_type_symbol 
_atom_site_fract_x 
_atom_site_fract_y 
_atom_site_fract_z 
_atom_site_charge 
C1          C  0.04328379  0.16735507  0.16734212     0.83500
N2          N  0.05346573  0.16700676  0.12138606    -0.74900
C3          C  0.04652182  0.12939955  0.08895635     0.85900
N4          N  0.02962045  0.09183031  0.10273572    -0.74800
C5          C  0.01943370  0.09171139  0.14851629     0.86000
N6          N  0.02632349  0.12944865  0.18097840    -0.76500
Zn7        Zn  0.93606402  0.90046481  0.10226283     1.49700
Zn8        Zn  0.94501182  0.87704870  0.21730985     1.49400
Zn9        Zn  0.89154349  0.84719046  0.16476525     1.49100
Zn10       Zn  0.94256093  0.78229750  0.13945088     1.49500
O11         O  0.92906035  0.85184356  0.15607797    -1.80900
O12         O  0.95911455  0.95886217  0.12566628    -0.71500
O13         O  0.91705087  0.89861356  0.26636792    -0.71300
O14         O  0.87256972  0.89071759  0.11600158    -0.70900
O15         O  0.96784787  0.94064217  0.20375496    -0.71500
O16         O  0.90305627  0.93100375  0.07300216    -0.71100
O17         O  0.88057034  0.87278984  0.23040204    -0.71700
O18         O  0.91321369  0.73093982  0.13114384    -0.71100
O19         O  0.96613873  0.81847419  0.24917078    -0.71900
O20         O  0.87828857  0.77481211  0.15529344    -0.71300
O21         O  0.96502728  0.75415527  0.19439243    -0.71700
O22         O  0.96211167  0.78315293  0.07474829    -0.71600
O23         O  0.95490875  0.86362248  0.04753933    -0.71400
C24         C  0.97060757  0.96903246  0.16577781     0.80400
C25         C  0.89250154  0.89311120  0.26620140     0.80900
C26         C  0.87933746  0.92191114  0.08242107     0.79800
C27         C  0.88903284  0.73347614  0.13986989     0.80200
C28         C  0.97199518  0.77231308  0.23573724     0.81300
C29         C  0.96421269  0.81810349  0.04191837     0.80400
C30         C  0.77914221  0.51563946  0.00413920     0.83500
N31         N  0.79184110  0.50310525  0.96210315    -0.74900
C32         C  0.81677902  0.51857136  0.95570677     0.85900
N33         N  0.82881003  0.54655830  0.99095414    -0.74800
C34         C  0.81623711  0.55892160  0.03282711     0.86000
N35         N  0.79134658  0.54363777  0.03945668    -0.76500
C36         C  0.00435786  0.66909234  0.33220057     0.83500
N37         N  0.02090088  0.63062719  0.31773017    -0.74900
C38         C  0.02838775  0.59325479  0.35011613     0.85900
N39         N  0.01920708  0.59425336  0.39660315    -0.74800
C40         C  0.00274000  0.63235152  0.41121107     0.86000
N41         N  0.99516641  0.66960519  0.37889488    -0.76500
Zn42       Zn  0.10507806  0.28215373  0.35874281     1.49700
Zn43       Zn  0.15556116  0.34867780  0.33244352     1.49400
Zn44       Zn  0.10150899  0.37642631  0.28079173     1.49100
Zn45       Zn  0.11069970  0.40027725  0.39596254     1.49500
O46         O  0.11798736  0.35198214  0.34186239    -1.80900
O47         O  0.13486155  0.23160106  0.36589290    -0.71500
O48         O  0.16592759  0.37288616  0.26580908    -0.71300
O49         O  0.08009159  0.31783115  0.25005113    -0.70900
O50         O  0.16951993  0.27673718  0.34290562    -0.71500
O51         O  0.08227165  0.25350433  0.30461996    -0.71100
O52         O  0.12892572  0.39670197  0.23039378    -0.71700
O53         O  0.08731838  0.45826146  0.37256855    -0.71100
O54         O  0.17427109  0.39403103  0.38019469    -0.71900
O55         O  0.07896267  0.44053293  0.29421382    -0.71300
O56         O  0.14350293  0.43203437  0.42456916    -0.71700
O57         O  0.09243188  0.36298638  0.45116729    -0.71600
O58         O  0.08615355  0.28218782  0.42415002    -0.71400
C59         C  0.15905665  0.23492681  0.35768571     0.80400
C60         C  0.15350517  0.39173011  0.22983259     0.80900
C61         C  0.07470213  0.27156427  0.26361833     0.79800
C62         C  0.07606697  0.46877715  0.33227836     0.80200
C63         C  0.16727101  0.42462114  0.41419768     0.81300
C64         C  0.08377891  0.31705649  0.45703615     0.80400
C65         C  0.26995520  0.01998425  0.49448769     0.83500
N66         N  0.25723269  0.04722448  0.45926699    -0.74900
C67         C  0.23213781  0.06121741  0.46611228     0.85900
N68         N  0.21985385  0.04828316  0.50813558    -0.74800
C69         C  0.23241477  0.02099675  0.54329894     0.86000
N70         N  0.25755614  0.00684131  0.53662669    -0.76500
C71         C  0.04575283  0.26079143  0.66914791     0.83500
N72         N  0.05616686  0.25984104  0.62337350    -0.74900
C73         C  0.04989011  0.29744770  0.59045039     0.85900
N74         N  0.03346164  0.33623860  0.60352627    -0.74800
C75         C  0.02309526  0.33764301  0.64909775     0.86000
N76         N  0.02928263  0.29994844  0.68208824    -0.76500
Zn77       Zn  0.91559205  0.59495174  0.59079476     1.49700
Zn78       Zn  0.96839490  0.57912943  0.65111398     1.49400
Zn79       Zn  0.91673296  0.62033361  0.70492907     1.49100
Zn80       Zn  0.91949290  0.50225122  0.66811590     1.49500
O81         O  0.93029812  0.57408692  0.65388005    -1.80900
O82         O  0.94329989  0.60857547  0.54088549    -0.71500
O83         O  0.98194787  0.63041408  0.70292230    -0.71300
O84         O  0.89267314  0.67494147  0.67746798    -0.70900
O85         O  0.98010958  0.60331390  0.58317354    -0.71500
O86         O  0.89430233  0.65981219  0.59741140    -0.71100
O87         O  0.94568907  0.65798038  0.73896711    -0.71700
O88         O  0.90090039  0.49734169  0.73300932    -0.71100
O89         O  0.98426980  0.50703324  0.66130008    -0.71900
O90         O  0.89662447  0.58022643  0.75534101    -0.71300
O91         O  0.95037392  0.45379446  0.66850732    -0.71700
O92         O  0.89324350  0.47683969  0.61862437    -0.71600
O93         O  0.89081523  0.54140400  0.56466539    -0.71400
C94         C  0.96784009  0.61171791  0.54340416     0.80400
C95         C  0.97021286  0.65857658  0.73448610     0.80900
C96         C  0.88617703  0.68587586  0.63382055     0.79800
C97         C  0.89228319  0.53205934  0.76196076     0.80200
C98         C  0.97470436  0.46154172  0.66607183     0.81300
C99         C  0.88355877  0.49725162  0.58036407     0.80400
C100        C  0.77540335  0.90432756  0.50033499     0.83500
N101        N  0.78898849  0.91918598  0.45998665    -0.78100
C102        C  0.81423110  0.90473682  0.45518005     0.85900
N103        N  0.82565748  0.87552597  0.49029489    -0.74800
C104        C  0.81220780  0.86086873  0.53044157     0.86000
N105        N  0.78703933  0.87511206  0.53550357    -0.76500
C106        C  0.00184250  0.76270584  0.82978896     0.83500
N107        N  0.99165054  0.76198193  0.87571679    -0.74900
C108        C  0.99832744  0.79925796  0.90864235     0.85900
N109        N  0.01494816  0.83751452  0.89543524    -0.74800
C110        C  0.02511212  0.83865022  0.84969007     0.86000
N111        N  0.01851749  0.80127638  0.81669417    -0.76500
Zn112      Zn  0.08044109  0.07825099  0.84861405     1.49700
Zn113      Zn  0.13381615  0.09649781  0.90614011     1.49400
Zn114      Zn  0.12953884  0.00089424  0.83151509     1.49100
Zn115      Zn  0.13114031  0.11774827  0.79139285     1.49500
O116        O  0.11850212  0.07313248  0.84434229    -1.80900
O117        O  0.06937739  0.10098784  0.91746459    -0.71500
O118        O  0.15940873  0.04434684  0.93204008    -0.71300
O119        O  0.09855555  0.95274706  0.83064992    -0.70900
O120        O  0.10667102  0.10940381  0.95766438    -0.71500
O121        O  0.06469309  0.00642398  0.83785943    -0.71100
O122        O  0.15544710  0.97634365  0.88222246    -0.71700
O123        O  0.15155475  0.07685307  0.74201492    -0.71100
O124        O  0.15415924  0.16213317  0.89681203    -0.71900
O125        O  0.14892316  0.99471953  0.76724934    -0.71300
O126        O  0.15474033  0.17405782  0.81623671    -0.71700
O127        O  0.10168464  0.15391227  0.75738396    -0.71600
O128        O  0.06613258  0.13003774  0.79774088    -0.71400
C129        C  0.08204309  0.11045391  0.95656444     0.80400
C130        C  0.16595747  0.99884854  0.91862068     0.80900
C131        C  0.07421887  0.96084735  0.83291252     0.79800
C132        C  0.15692359  0.02884360  0.73713869     0.80200
C133        C  0.16152409  0.18705997  0.85918527     0.81300
C134        C  0.07733778  0.15625874  0.76416099     0.80400
C135        C  0.26797460  0.41117312  0.99077622     0.83500
N136        N  0.25676132  0.38324917  0.95429344    -0.74900
C137        C  0.23170726  0.36815958  0.95833643     0.85900
N138        N  0.21796540  0.38048464  0.99889670    -0.74800
C139        C  0.22898975  0.40835968  0.03538123     0.86000
N140        N  0.25412238  0.42367086  0.03154573    -0.76500
C141        C  0.50289370  0.66563792  0.16765484     0.83500
N142        N  0.51955282  0.62710419  0.18129667    -0.74900
C143        C  0.52670948  0.58996591  0.14842009     0.85900
N144        N  0.51710284  0.59128403  0.10225351    -0.74800
C145        C  0.50050692  0.62950989  0.08851167     0.86000
N146        N  0.49326721  0.66654185  0.12131431    -0.76500
Zn147      Zn  0.58071397  0.34888395  0.15219192     1.49700
Zn148      Zn  0.63017919  0.42441099  0.16883290     1.49400
Zn149      Zn  0.63112643  0.30706552  0.20930230     1.49100
Zn150      Zn  0.63408509  0.32870951  0.09468246     1.49500
O151        O  0.61881322  0.35243115  0.15641875    -1.80900
O152        O  0.56536163  0.42134551  0.16219723    -0.71500
O153        O  0.64942751  0.42987483  0.23306704    -0.71300
O154        O  0.60129230  0.27121085  0.24258357    -0.70900
O155        O  0.59956229  0.47377493  0.16947761    -0.71500
O156        O  0.56594373  0.29777088  0.20292326    -0.71100
O157        O  0.65134145  0.34787440  0.25917836    -0.71700
O158        O  0.65436263  0.26297692  0.10393236    -0.71100
O159        O  0.65605331  0.44831550  0.11792355    -0.71900
O160        O  0.65474515  0.25014682  0.18436999    -0.71300
O161        O  0.65948999  0.38046496  0.06779737    -0.71700
O162        O  0.60689492  0.31531637  0.04378051    -0.71600
O163        O  0.56961940  0.32552399  0.08375396    -0.71400
C164        C  0.57518262  0.46660003  0.16697146     0.80400
C165        C  0.65697318  0.39579948  0.26369620     0.80900
C166        C  0.57690587  0.27025651  0.23590804     0.79800
C167        C  0.66157367  0.23744303  0.14130977     0.80200
C168        C  0.66620608  0.42583047  0.08111839     0.81300
C169        C  0.58228129  0.31484040  0.04492102     0.80400
C170        C  0.76711534  0.01273646  0.00512152     0.83500
N171        N  0.75587449  0.04103135  0.04140240    -0.74900
C172        C  0.73095949  0.05712852  0.03684011     0.85900
N173        N  0.71737639  0.04534218  0.99595840    -0.74800
C174        C  0.72844111  0.01704564  0.95970376     0.86000
N175        N  0.75342231  0.00077254  0.96408372    -0.76500
C176        C  0.54405723  0.16550981  0.32893079     0.83500
N177        N  0.52775770  0.12641905  0.31534739    -0.74900
C178        C  0.52125403  0.08871835  0.34810327     0.85900
N179        N  0.53115477  0.09009839  0.39408119    -0.74800
C180        C  0.54739826  0.12887023  0.40775283     0.86000
N181        N  0.55396333  0.16640689  0.37506507    -0.76500
Zn182      Zn  0.44549281  0.87474157  0.28215707     1.49700
Zn183      Zn  0.44253936  0.78061795  0.36069111     1.49400
Zn184      Zn  0.43760272  0.89914271  0.39714069     1.49100
Zn185      Zn  0.39204579  0.84744333  0.33548134     1.49500
O186        O  0.42965547  0.85055107  0.34377462    -1.80900
O187        O  0.46601978  0.81546151  0.25072265    -0.71500
O188        O  0.46169666  0.78057042  0.42588063    -0.71300
O189        O  0.46167655  0.95554056  0.37313919    -0.70900
O190        O  0.46504219  0.75192081  0.30625820    -0.71500
O191        O  0.46894373  0.93759205  0.29447659    -0.71100
O192        O  0.45561020  0.86160860  0.45259001    -0.71700
O193        O  0.37390060  0.89335808  0.38343877    -0.71100
O194        O  0.41285795  0.72998682  0.36770881    -0.71900
O195        O  0.40512358  0.93300503  0.42518736    -0.71300
O196        O  0.37811087  0.77566544  0.34573542    -0.71700
O197        O  0.38101348  0.87201665  0.26940728    -0.71600
O198        O  0.41763993  0.89627395  0.23310543    -0.71400
C199        C  0.47183132  0.76949167  0.26462071     0.80400
C200        C  0.46421297  0.81558326  0.45858388     0.80900
C201        C  0.47265635  0.96549100  0.33248258     0.79800
C202        C  0.38125482  0.92531113  0.41597447     0.80200
C203        C  0.38864367  0.73355329  0.35973224     0.81300
C204        C  0.39307086  0.89137682  0.23329899     0.80400
C205        C  0.27889804  0.51577908  0.49392541     0.83500
N206        N  0.29106337  0.54331856  0.45827897    -0.74900
C207        C  0.31612844  0.55773761  0.46419232     0.85900
N208        N  0.32892880  0.54501371  0.50571416    -0.74800
C209        C  0.31694439  0.51747080  0.54130796     0.86000
N210        N  0.29182186  0.50285704  0.53560905    -0.76500
C211        C  0.54414486  0.25852207  0.83383410     0.83500
N212        N  0.55409113  0.25786580  0.87997984    -0.74900
C213        C  0.54714167  0.29520441  0.91275561     0.85900
N214        N  0.53054813  0.33347448  0.89917602    -0.74800
C215        C  0.52062386  0.33459559  0.85326893     0.86000
N216        N  0.52747277  0.29716565  0.82041321    -0.76500
Zn217      Zn  0.41402938  0.59784339  0.90581348     1.49700
Zn218      Zn  0.41801899  0.50213490  0.83137099     1.49400
Zn219      Zn  0.41721161  0.61919256  0.79126486     1.49100
Zn220      Zn  0.46753937  0.57714159  0.84870002     1.49500
O221        O  0.42942581  0.57393311  0.84421817    -1.80900
O222        O  0.38839099  0.54611177  0.93228664    -0.71500
O223        O  0.39956846  0.49648701  0.76627892    -0.71300
O224        O  0.39397916  0.67674822  0.81588877    -0.70900
O225        O  0.39164359  0.47871840  0.88152096    -0.71500
O226        O  0.39414689  0.66421432  0.89637606    -0.71100
O227        O  0.39719468  0.57868886  0.74096995    -0.71700
O228        O  0.48245681  0.62749522  0.79748821    -0.71100
O229        O  0.44844950  0.45242812  0.83191879    -0.71900
O230        O  0.44708863  0.65420534  0.75797619    -0.71300
O231        O  0.48280309  0.50436696  0.83948680    -0.71700
O232        O  0.47853691  0.60102709  0.91698776    -0.71600
O233        O  0.44120747  0.61081437  0.95691018    -0.71400
C234        C  0.38151317  0.50098145  0.91847540     0.80400
C235        C  0.39200697  0.53065540  0.73575907     0.80900
C236        C  0.38723631  0.68990022  0.85886617     0.79800
C237        C  0.47147897  0.65480351  0.76437331     0.80200
C238        C  0.47283728  0.45921726  0.83480186     0.81300
C239        C  0.46582606  0.61144375  0.95582094     0.80400
C240        C  0.28083524  0.91429349  0.99044846     0.83500
N241        N  0.29292708  0.88755508  0.95410550    -0.74900
C242        C  0.31806032  0.87315095  0.95930457     0.85900
N243        N  0.33098500  0.88491623  0.00093455    -0.74800
C244        C  0.31906812  0.91162031  0.03728225     0.86000
N245        N  0.29386507  0.92621067  0.03226828    -0.76500
C246        C  0.50330812  0.75869158  0.66979362     0.83500
N247        N  0.51970414  0.79774750  0.68286745    -0.74900
C248        C  0.52567271  0.83576037  0.65014158     0.85900
N249        N  0.51514485  0.83477533  0.60466699    -0.74800
C250        C  0.49877006  0.79604369  0.59148522     0.86000
N251        N  0.49272941  0.75813066  0.62417424    -0.76500
Zn252      Zn  0.60389242  0.14459005  0.63862903     1.49700
Zn253      Zn  0.60867759  0.02615034  0.60101915     1.49400
Zn254      Zn  0.65448250  0.07677508  0.66225308     1.49100
Zn255      Zn  0.60092597  0.04990628  0.71622168     1.49500
O256        O  0.61678645  0.07436789  0.65464868    -1.80900
O257        O  0.58415213  0.14480488  0.57390029    -0.71500
O258        O  0.64089389  0.99274896  0.57151741    -0.71300
O259        O  0.66861031  0.14844122  0.65103680    -0.70900
O260        O  0.59017746  0.06395947  0.54656630    -0.71500
O261        O  0.63381069  0.19474452  0.63045237    -0.71100
O262        O  0.67239466  0.03043592  0.61403391    -0.71700
O263        O  0.62882846  0.02831245  0.76498089    -0.71100
O264        O  0.58499375  0.96929648  0.62495137    -0.71900
O265        O  0.66546954  0.05243123  0.72855076    -0.71300
O266        O  0.57766130  0.98696071  0.70365477    -0.71700
O267        O  0.58034089  0.10877033  0.74851278    -0.71600
O268        O  0.58181794  0.17333177  0.69412293    -0.71400
C269        C  0.58145758  0.10994575  0.54106876     0.80400
C270        C  0.66481726  0.99952551  0.58077998     0.80900
C271        C  0.65811937  0.19073276  0.63730877     0.79800
C272        C  0.65339360  0.03322703  0.76474608     0.80200
C273        C  0.57407107  0.95911515  0.66558701     0.81300
C274        C  0.57484073  0.15518046  0.73546655     0.80400
C275        C  0.76928059  0.41011645  0.50713751     0.83500
N276        N  0.75662712  0.38230396  0.54202129    -0.74900
C277        C  0.73158689  0.36818813  0.53490780     0.85900
N278        N  0.71934202  0.38146298  0.49293970    -0.74800
C279        C  0.73182231  0.40922675  0.45811168     0.86000
N280        N  0.75690188  0.42349212  0.46500223    -0.76500
C281        C  0.71827095  0.33618463  0.56971437    -0.15300
C282        C  0.70520945  0.30652849  0.59325969     0.08800
C283        C  0.68871744  0.26896691  0.61430257     0.10600
C284        C  0.67445757  0.23453884  0.62725139    -0.16100
C285        C  0.54280459  0.87780133  0.66304252    -0.10000
C286        C  0.55703183  0.91481608  0.66763586    -0.11600
C287        C  0.37121868  0.73488672  0.86583880    -0.15300
C288        C  0.35776797  0.77113914  0.87756110     0.08800
C289        C  0.34254496  0.81077071  0.89871127     0.10600
C290        C  0.33052679  0.84139182  0.92318801    -0.16100
C291        C  0.48653334  0.68851967  0.73325834    -0.10000
C292        C  0.49567851  0.71977732  0.70502426    -0.11600
C293        C  0.56152595  0.18924260  0.76938307    -0.10000
C294        C  0.55259705  0.22009798  0.79848537    -0.11600
C295        C  0.48956004  0.41418865  0.83486435    -0.10000
C296        C  0.50353077  0.37671662  0.83995602    -0.11600
C297        C  0.33086485  0.50662906  0.58560662    -0.15300
C298        C  0.34469848  0.50372596  0.62104473     0.08800
C299        C  0.36192067  0.50707245  0.66105148     0.10600
C300        C  0.37632140  0.51520204  0.69492485    -0.16100
C301        C  0.37816784  0.90720260  0.19147874    -0.15300
C302        C  0.36397580  0.91643452  0.15748956     0.08800
C303        C  0.34681117  0.92173206  0.11752410     0.10600
C304        C  0.33299730  0.92064328  0.08194915    -0.16100
C305        C  0.48690788  0.79724806  0.54374061    -0.10000
C306        C  0.47686363  0.80318781  0.50414510    -0.11600
C307        C  0.37242243  0.68949581  0.36896379    -0.15300
C308        C  0.35818812  0.65507957  0.38184598     0.08800
C309        C  0.34179744  0.61797242  0.40365098     0.10600
C310        C  0.32898160  0.58895521  0.42826356    -0.16100
C311        C  0.56858998  0.12243318  0.49575943    -0.10000
C312        C  0.55869799  0.12802617  0.45598671    -0.11600
C313        C  0.50415546  0.04662561  0.33484868    -0.10000
C314        C  0.48986612  0.00963082  0.33031209    -0.11600
C315        C  0.71379404  0.00734135  0.91598794    -0.15300
C316        C  0.69966852  0.00529131  0.88089206     0.08800
C317        C  0.68239725  0.00937808  0.84097510     0.10600
C318        C  0.66824411  0.01783682  0.80676099    -0.16100
C319        C  0.67315881  0.41123187  0.30383345    -0.15300
C320        C  0.68781238  0.41948022  0.33729075     0.08800
C321        C  0.70501178  0.42305121  0.37730926     0.10600
C322        C  0.71853794  0.42024844  0.41316978    -0.16100
C323        C  0.55854654  0.29686527  0.96083360    -0.10000
C324        C  0.56861727  0.30319674  0.00031512    -0.11600
C325        C  0.71920579  0.08942367  0.07341209    -0.15300
C326        C  0.70742270  0.11960287  0.09878062     0.08800
C327        C  0.69201376  0.15809836  0.12128670     0.10600
C328        C  0.67813628  0.19332587  0.13397167    -0.16100
C329        C  0.55225086  0.20431783  0.29394457    -0.10000
C330        C  0.56178658  0.23587103  0.26640044    -0.11600
C331        C  0.48943699  0.62832805  0.04017036    -0.10000
C332        C  0.47945382  0.62266650  0.00053669    -0.11600
C333        C  0.48528742  0.73514915  0.23136667    -0.10000
C334        C  0.49431500  0.70401824  0.20275094    -0.11600
C335        C  0.54399968  0.54826843  0.16190240    -0.10000
C336        C  0.55825321  0.51127891  0.16716802    -0.11600
C337        C  0.36052994  0.47589889  0.94359772    -0.15300
C338        C  0.34091225  0.45836664  0.96096293     0.08800
C339        C  0.31631736  0.44092468  0.97659286     0.10600
C340        C  0.29446825  0.42736008  0.98561205    -0.16100
C341        C  0.22002968  0.33571753  0.92197256    -0.15300
C342        C  0.20808297  0.30505732  0.89758959     0.08800
C343        C  0.19237137  0.26608075  0.87699895     0.10600
C344        C  0.17825955  0.23080994  0.86586629    -0.16100
C345        C  0.25417136  0.92916862  0.98441115    -0.15300
C346        C  0.23211092  0.94141524  0.97532928     0.08800
C347        C  0.20714508  0.95728486  0.96013423     0.10600
C348        C  0.18717124  0.97387282  0.94326919    -0.16100
C349        C  0.04254051  0.88018123  0.83686188    -0.10000
C350        C  0.05698247  0.91682352  0.83214927    -0.11600
C351        C  0.68425244  0.97214190  0.55323333    -0.15300
C352        C  0.70311659  0.95304024  0.53422778     0.08800
C353        C  0.72724696  0.93435817  0.51705971     0.10600
C354        C  0.74891516  0.92030986  0.50687982    -0.16100
C355        C  0.86877493  0.72827832  0.62483834    -0.15300
C356        C  0.85397179  0.76183452  0.61194815     0.08800
C357        C  0.83734154  0.79871622  0.59024027     0.10600
C358        C  0.82461271  0.82825251  0.56590372    -0.16100
C359        C  0.98462945  0.69297063  0.76611186    -0.10000
C360        C  0.99374548  0.72419947  0.79446359    -0.11600
C361        C  0.79580070  0.42496597  0.51498500    -0.15300
C362        C  0.81772203  0.43767030  0.52454517     0.08800
C363        C  0.84256267  0.45432503  0.53960971     0.10600
C364        C  0.86244890  0.47159041  0.55613043    -0.16100
C365        C  0.06259669  0.19064914  0.73292209    -0.10000
C366        C  0.05352905  0.22203347  0.70458292    -0.11600
C367        C  0.99182751  0.41716313  0.66653246    -0.10000
C368        C  0.00598495  0.37993377  0.66180547    -0.11600
C369        C  0.36158570  0.95300690  0.44254211    -0.15300
C370        C  0.34245441  0.97220700  0.46041738     0.08800
C371        C  0.31811601  0.99079330  0.47648878     0.10600
C372        C  0.29640447  0.00459529  0.48654601    -0.16100
C373        C  0.17333145  0.01356493  0.69719431    -0.15300
C374        C  0.18816040  0.00658794  0.66371169     0.08800
C375        C  0.20545554  0.00507685  0.62368515     0.10600
C376        C  0.21900456  0.00933464  0.58797270    -0.16100
C377        C  0.21414407  0.41815977  0.07889390    -0.15300
C378        C  0.19973507  0.41988881  0.11362669     0.08800
C379        C  0.18220585  0.41538986  0.15314029     0.10600
C380        C  0.16802692  0.40684043  0.18730579    -0.16100
C381        C  0.06154802  0.29839996  0.54252834    -0.10000
C382        C  0.07133595  0.30450703  0.50273815    -0.11600
C383        C  0.21870625  0.09193134  0.43041296    -0.15300
C384        C  0.20578476  0.12039753  0.40528367     0.08800
C385        C  0.18949957  0.15695537  0.38213818     0.10600
C386        C  0.17534382  0.19106182  0.36795024    -0.16100
C387        C  0.25245027  0.50005887  0.48687028    -0.15300
C388        C  0.23072668  0.48652394  0.47676094     0.08800
C389        C  0.20637988  0.46884059  0.45998178     0.10600
C390        C  0.18719765  0.45079697  0.44136049    -0.16100
C391        C  0.99188781  0.63035371  0.45976544    -0.10000
C392        C  0.98187024  0.62379421  0.49927848    -0.11600
C393        C  0.05940654  0.51388894  0.33064550    -0.10000
C394        C  0.04540400  0.55133285  0.33577638    -0.11600
C395        C  0.68708511  0.45084766  0.05567143    -0.15300
C396        C  0.70666419  0.46817450  0.03799665     0.08800
C397        C  0.73115922  0.48553866  0.02179278     0.10600
C398        C  0.75284930  0.49926966  0.01173577    -0.16100
C399        C  0.83048344  0.50795312  0.91114285    -0.15300
C400        C  0.84430653  0.50526834  0.87569090     0.08800
C401        C  0.86169854  0.50883204  0.83599627     0.10600
C402        C  0.87633455  0.51696848  0.80250930    -0.16100
C403        C  0.82898958  0.91753683  0.41234146    -0.15300
C404        C  0.84390120  0.92116235  0.37854732     0.08800
C405        C  0.86237856  0.91780782  0.34053316     0.10600
C406        C  0.87737249  0.90924498  0.30762879    -0.16100
C407        C  0.97702705  0.80610012  0.99647117    -0.10000
C408        C  0.98688422  0.80034201  0.95670757    -0.11600
C409        C  0.87301023  0.68935216  0.12956386    -0.15300
C410        C  0.85873217  0.65537702  0.11575926     0.08800
C411        C  0.84218069  0.61893341  0.09330166     0.10600
C412        C  0.82921424  0.59024207  0.06857756    -0.16100
C413        C  0.99524596  0.70753353  0.29750368    -0.10000
C414        C  0.98579741  0.73845940  0.26909553    -0.11600
C415        C  0.79348737  0.99567303  0.01070036    -0.15300
C416        C  0.81527525  0.98171815  0.01998601     0.08800
C417        C  0.83980015  0.96430893  0.03625144     0.10600
C418        C  0.85918865  0.94697968  0.05482559    -0.16100
C419        C  0.05809911  0.12714467  0.04093144    -0.10000
C420        C  0.06833652  0.12126506  0.00146085    -0.11600
C421        C  0.05175331  0.20616797  0.20221497    -0.10000
C422        C  0.06089902  0.23740589  0.23062407    -0.11600
C423        C  0.00187758  0.05050253  0.16211068    -0.10000
C424        C  0.98751348  0.01370003  0.16720290    -0.11600
loop_ 
_geom_bond_atom_site_label_1 
_geom_bond_atom_site_label_2 
_geom_bond_distance 
_geom_bond_site_symmetry_2 
_ccdc_geom_bond_type 
C1            N2   1.361       .  A
C1            N6   1.363       .  A
C1          C421   1.447       .  S
N2            C3   1.359       .  A
C3            N4   1.356       .  A
C3          C419   1.443       .  S
N4            C5   1.357       .  A
C5            N6   1.362       .  A
C5          C423   1.444       .  S
Zn7          O11   1.964       .  S
Zn7          O12   2.020       .  S
Zn7          O16   2.038       .  S
Zn7          O23   2.018       .  S
Zn8          O11   1.974       .  S
Zn8          O13   2.045       .  S
Zn8          O15   2.051       .  S
Zn8          O19   2.051       .  S
Zn9          O11   1.955       .  S
Zn9          O14   1.996       .  S
Zn9          O17   1.992       .  S
Zn9          O20   2.000       .  S
Zn10         O11   1.969       .  S
Zn10         O18   2.024       .  S
Zn10         O21   2.030       .  S
Zn10         O22   2.036       .  S
O12          C24   1.274       .  A
O13          C25   1.275       .  A
O14          C26   1.268       .  A
O15          C24   1.277       .  A
O16          C26   1.273       .  A
O17          C25   1.269       .  A
O18          C27   1.272       .  A
O19          C28   1.277       .  A
O20          C27   1.269       .  A
O21          C28   1.274       .  A
O22          C29   1.275       .  A
O23          C29   1.273       .  A
C24         C424   1.444   1_565  S
C25         C406   1.436       .  S
C26         C418   1.436       .  S
C27         C409   1.433       .  S
C28         C414   1.447       .  S
C29         C407   1.440   1_554  S
C30          N31   1.361   1_554  A
C30          N35   1.359       .  A
C30         C398   1.437       .  S
N31          C32   1.359       .  A
C32          N33   1.353       .  A
C32         C399   1.434       .  S
N33          C34   1.353   1_556  A
C34          N35   1.356       .  A
C34         C412   1.433       .  S
C36          N37   1.363       .  A
C36          N41   1.361   1_455  A
C36         C413   1.447   1_455  S
N37          C38   1.362       .  A
C38          N39   1.356       .  A
C38         C394   1.442       .  S
N39          C40   1.355       .  A
C40          N41   1.360   1_455  A
C40         C391   1.441   1_455  S
Zn42         O46   1.970       .  S
Zn42         O47   2.020       .  S
Zn42         O51   2.029       .  S
Zn42         O58   2.037       .  S
Zn43         O46   1.958       .  S
Zn43         O48   1.998       .  S
Zn43         O50   2.003       .  S
Zn43         O54   1.999       .  S
Zn44         O46   1.975       .  S
Zn44         O49   2.049       .  S
Zn44         O52   2.043       .  S
Zn44         O55   2.048       .  S
Zn45         O46   1.965       .  S
Zn45         O53   2.019       .  S
Zn45         O56   2.037       .  S
Zn45         O57   2.022       .  S
O47          C59   1.272       .  A
O48          C60   1.269       .  A
O49          C61   1.277       .  A
O50          C59   1.270       .  A
O51          C61   1.274       .  A
O52          C60   1.275       .  A
O53          C62   1.274       .  A
O54          C63   1.269       .  A
O55          C62   1.277       .  A
O56          C63   1.273       .  A
O57          C64   1.273       .  A
O58          C64   1.274       .  A
C59         C386   1.432       .  S
C60         C380   1.437       .  S
C61         C422   1.447       .  S
C62         C393   1.442       .  S
C63         C390   1.436       .  S
C64         C382   1.441       .  S
C65          N66   1.359       .  A
C65          N70   1.360       .  A
C65         C372   1.437       .  S
N66          C67   1.356       .  A
C67          N68   1.354       .  A
C67         C383   1.433       .  S
N68          C69   1.354       .  A
C69          N70   1.359       .  A
C69         C376   1.435       .  S
C71          N72   1.362       .  A
C71          N76   1.362       .  A
C71         C366   1.446       .  S
N72          C73   1.359       .  A
C73          N74   1.355       .  A
C73         C381   1.441       .  S
N74          C75   1.356       .  A
C75          N76   1.361       .  A
C75         C368   1.441       .  S
Zn77         O81   1.958       .  S
Zn77         O82   2.007       .  S
Zn77         O86   2.002       .  S
Zn77         O93   2.011       .  S
Zn78         O81   1.972       .  S
Zn78         O83   2.057       .  S
Zn78         O85   2.050       .  S
Zn78         O89   2.043       .  S
Zn79         O81   1.960       .  S
Zn79         O84   2.017       .  S
Zn79         O87   2.010       .  S
Zn79         O90   2.011       .  S
Zn80         O81   1.968       .  S
Zn80         O88   2.020       .  S
Zn80         O91   2.020       .  S
Zn80         O92   2.023       .  S
O82          C94   1.271       .  A
O83          C95   1.277       .  A
O84          C96   1.270       .  A
O85          C94   1.276       .  A
O86          C96   1.270       .  A
O87          C95   1.272       .  A
O88          C97   1.272       .  A
O89          C98   1.277       .  A
O90          C97   1.271       .  A
O91          C98   1.273       .  A
O92          C99   1.272       .  A
O93          C99   1.270       .  A
C94         C392   1.441       .  S
C95         C359   1.443       .  S
C96         C355   1.432       .  S
C97         C402   1.434       .  S
C98         C367   1.441       .  S
C99         C364   1.436       .  S
C100        N101   1.362       .  A
C100        N105   1.359       .  A
C100        C354   1.438       .  S
N101        C102   1.360       .  A
C102        N103   1.353       .  A
C102        C403   1.435       .  S
N103        C104   1.352       .  A
C104        N105   1.356       .  A
C104        C358   1.432       .  S
C106        N107   1.361   1_455  A
C106        N111   1.362       .  A
C106        C360   1.444   1_455  S
N107        C108   1.359       .  A
C108        N109   1.355   1_655  A
C108        C408   1.440       .  S
N109        C110   1.356       .  A
C110        N111   1.361       .  A
C110        C349   1.440       .  S
Zn112       O116   1.972       .  S
Zn112       O117   2.051       .  S
Zn112       O121   2.039       .  S
Zn112       O128   2.061       .  S
Zn113       O116   1.959       .  S
Zn113       O118   2.009       .  S
Zn113       O120   2.013       .  S
Zn113       O124   2.005       .  S
Zn114       O116   1.972       .  S
Zn114       O119   2.024   1_545  S
Zn114       O122   2.026   1_545  S
Zn114       O125   2.027   1_545  S
Zn115       O116   1.959       .  S
Zn115       O123   2.007       .  S
Zn115       O126   2.011       .  S
Zn115       O127   2.008       .  S
O117        C129   1.276       .  A
O118        C130   1.270   1_545  A
O119        C131   1.274       .  A
O120        C129   1.272       .  A
O121        C131   1.276   1_545  A
O122        C130   1.272       .  A
O123        C132   1.271       .  A
O124        C133   1.270       .  A
O125        C132   1.272   1_565  A
O126        C133   1.270       .  A
O127        C134   1.271       .  A
O128        C134   1.278       .  A
C129        C420   1.443   1_556  S
C130        C348   1.436       .  S
C131        C350   1.441       .  S
C132        C373   1.436       .  S
C133        C344   1.431       .  S
C134        C365   1.444       .  S
C135        N136   1.358       .  A
C135        N140   1.362   1_556  A
C135        C340   1.437       .  S
N136        C137   1.355       .  A
C137        N138   1.353       .  A
C137        C341   1.431       .  S
N138        C139   1.353   1_556  A
C139        N140   1.360       .  A
C139        C377   1.436       .  S
C141        N142   1.362       .  A
C141        N146   1.361       .  A
C141        C334   1.444       .  S
N142        C143   1.361       .  A
C143        N144   1.356       .  A
C143        C335   1.441       .  S
N144        C145   1.355       .  A
C145        N146   1.359       .  A
C145        C331   1.440       .  S
Zn147       O151   1.972       .  S
Zn147       O152   2.040       .  S
Zn147       O156   2.058       .  S
Zn147       O163   2.046       .  S
Zn148       O151   1.971       .  S
Zn148       O153   2.022       .  S
Zn148       O155   2.024       .  S
Zn148       O159   2.025       .  S
Zn149       O151   1.962       .  S
Zn149       O154   2.013       .  S
Zn149       O157   2.012       .  S
Zn149       O160   2.020       .  S
Zn150       O151   1.959       .  S
Zn150       O158   2.001       .  S
Zn150       O161   2.009       .  S
Zn150       O162   2.006       .  S
O152        C164   1.276       .  A
O153        C165   1.272       .  A
O154        C166   1.272       .  A
O155        C164   1.274       .  A
O156        C166   1.277       .  A
O157        C165   1.272       .  A
O158        C167   1.270       .  A
O159        C168   1.272       .  A
O160        C167   1.271       .  A
O161        C168   1.270       .  A
O162        C169   1.271       .  A
O163        C169   1.276       .  A
C164        C336   1.441       .  S
C165        C319   1.435       .  S
C166        C330   1.445       .  S
C167        C328   1.432       .  S
C168        C395   1.436       .  S
C169        C324   1.440       .  S
C170        N171   1.358       .  A
C170        N175   1.361   1_554  A
C170        C415   1.437   1_545  S
N171        C172   1.356       .  A
C172        N173   1.354   1_554  A
C172        C325   1.433       .  S
N173        C174   1.354       .  A
C174        N175   1.360       .  A
C174        C315   1.436       .  S
C176        N177   1.363       .  A
C176        N181   1.361       .  A
C176        C329   1.446       .  S
N177        C178   1.362       .  A
C178        N179   1.357       .  A
C178        C313   1.443       .  S
N179        C180   1.356       .  A
C180        N181   1.358       .  A
C180        C312   1.442       .  S
Zn182       O186   1.973       .  S
Zn182       O187   2.042       .  S
Zn182       O191   2.048       .  S
Zn182       O198   2.041       .  S
Zn183       O186   1.970       .  S
Zn183       O188   2.038       .  S
Zn183       O190   2.025       .  S
Zn183       O194   2.021       .  S
Zn184       O186   1.963       .  S
Zn184       O189   2.020       .  S
Zn184       O192   2.022       .  S
Zn184       O195   2.036       .  S
Zn185       O186   1.956       .  S
Zn185       O193   1.995       .  S
Zn185       O196   2.001       .  S
Zn185       O197   1.996       .  S
O187        C199   1.276       .  A
O188        C200   1.275       .  A
O189        C201   1.273       .  A
O190        C199   1.274       .  A
O191        C201   1.276       .  A
O192        C200   1.273       .  A
O193        C202   1.269       .  A
O194        C203   1.272       .  A
O195        C202   1.273       .  A
O196        C203   1.269       .  A
O197        C204   1.269       .  A
O198        C204   1.274       .  A
C199        C333   1.443       .  S
C200        C306   1.441       .  S
C201        C314   1.443   1_565  S
C202        C369   1.435       .  S
C203        C307   1.432       .  S
C204        C301   1.436       .  S
C205        N206   1.359       .  A
C205        N210   1.361       .  A
C205        C387   1.437       .  S
N206        C207   1.356       .  A
C207        N208   1.353       .  A
C207        C310   1.432       .  S
N208        C209   1.354       .  A
C209        N210   1.359       .  A
C209        C297   1.435       .  S
C211        N212   1.362       .  A
C211        N216   1.363       .  A
C211        C294   1.447       .  S
N212        C213   1.360       .  A
C213        N214   1.355       .  A
C213        C323   1.440       .  S
N214        C215   1.355       .  A
C215        N216   1.361       .  A
C215        C296   1.442       .  S
Zn217       O221   1.959       .  S
Zn217       O222   2.012       .  S
Zn217       O226   2.005       .  S
Zn217       O233   2.007       .  S
Zn218       O221   1.969       .  S
Zn218       O223   2.023       .  S
Zn218       O225   2.024       .  S
Zn218       O229   2.022       .  S
Zn219       O221   1.960       .  S
Zn219       O224   2.017       .  S
Zn219       O227   2.011       .  S
Zn219       O230   2.005       .  S
Zn220       O221   1.973       .  S
Zn220       O228   2.057       .  S
Zn220       O231   2.043       .  S
Zn220       O232   2.045       .  S
O222        C234   1.271       .  A
O223        C235   1.272       .  A
O224        C236   1.270       .  A
O225        C234   1.272       .  A
O226        C236   1.270       .  A
O227        C235   1.271       .  A
O228        C237   1.277       .  A
O229        C238   1.273       .  A
O230        C237   1.271       .  A
O231        C238   1.276       .  A
O232        C239   1.276       .  A
O233        C239   1.271       .  A
C234        C337   1.436       .  S
C235        C300   1.435       .  S
C236        C287   1.432       .  S
C237        C291   1.442       .  S
C238        C295   1.442       .  S
C239        C332   1.439   1_556  S
C240        N241   1.358       .  A
C240        N245   1.361   1_556  A
C240        C345   1.437       .  S
N241        C242   1.356       .  A
C242        N243   1.353   1_556  A
C242        C290   1.432       .  S
N243        C244   1.354       .  A
C244        N245   1.360       .  A
C244        C304   1.436       .  S
C246        N247   1.362       .  A
C246        N251   1.361       .  A
C246        C292   1.444       .  S
N247        C248   1.360       .  A
C248        N249   1.357       .  A
C248        C285   1.441       .  S
N249        C250   1.356       .  A
C250        N251   1.359       .  A
C250        C305   1.442       .  S
Zn252       O256   1.971       .  S
Zn252       O257   2.041       .  S
Zn252       O261   2.026       .  S
Zn252       O268   2.034       .  S
Zn253       O256   1.964       .  S
Zn253       O258   2.036   1_545  S
Zn253       O260   2.017       .  S
Zn253       O264   2.016   1_545  S
Zn254       O256   1.958       .  S
Zn254       O259   2.006       .  S
Zn254       O262   2.001       .  S
Zn254       O265   1.999       .  S
Zn255       O256   1.975       .  S
Zn255       O263   2.038       .  S
Zn255       O266   2.045   1_545  S
Zn255       O267   2.046       .  S
O257        C269   1.275       .  A
O258        C270   1.273       .  A
O259        C271   1.270       .  A
O260        C269   1.272       .  A
O261        C271   1.272       .  A
O262        C270   1.269   1_545  A
O263        C272   1.274       .  A
O264        C273   1.273       .  A
O265        C272   1.270       .  A
O266        C273   1.276       .  A
O267        C274   1.276       .  A
O268        C274   1.275       .  A
C269        C311   1.441       .  S
C270        C351   1.437       .  S
C271        C284   1.434       .  S
C272        C318   1.436       .  S
C273        C286   1.441       .  S
C274        C293   1.447       .  S
C275        N276   1.360       .  A
C275        N280   1.361       .  A
C275        C361   1.438       .  S
N276        C277   1.357       .  A
C277        N278   1.353       .  A
C277        C281   1.434       .  S
N278        C279   1.354       .  A
C279        N280   1.359       .  A
C279        C322   1.435       .  S
C281        C282   1.205       .  T
C282        C283   1.411       .  S
C283        C284   1.205       .  T
C285        C286   1.209       .  T
C287        C288   1.204       .  T
C288        C289   1.409       .  S
C289        C290   1.204       .  T
C291        C292   1.211       .  T
C293        C294   1.213       .  T
C295        C296   1.210       .  T
C297        C298   1.205       .  T
C298        C299   1.412       .  S
C299        C300   1.206       .  T
C301        C302   1.206       .  T
C302        C303   1.413       .  S
C303        C304   1.206       .  T
C305        C306   1.209       .  T
C307        C308   1.204       .  T
C308        C309   1.408       .  S
C309        C310   1.203       .  T
C311        C312   1.209       .  T
C313        C314   1.211       .  T
C315        C316   1.206       .  T
C316        C317   1.413       .  S
C317        C318   1.206       .  T
C319        C320   1.206       .  T
C320        C321   1.412       .  S
C321        C322   1.205       .  T
C323        C324   1.209   1_556  T
C325        C326   1.204       .  T
C326        C327   1.409       .  S
C327        C328   1.204       .  T
C329        C330   1.212       .  T
C331        C332   1.208       .  T
C333        C334   1.211       .  T
C335        C336   1.209       .  T
C337        C338   1.206       .  T
C338        C339   1.413       .  S
C339        C340   1.206       .  T
C341        C342   1.203       .  T
C342        C343   1.407       .  S
C343        C344   1.203       .  T
C345        C346   1.206       .  T
C346        C347   1.413       .  S
C347        C348   1.206       .  T
C349        C350   1.209       .  T
C351        C352   1.207       .  T
C352        C353   1.414       .  S
C353        C354   1.207       .  T
C355        C356   1.204       .  T
C356        C357   1.408       .  S
C357        C358   1.203       .  T
C359        C360   1.211       .  T
C361        C362   1.207       .  T
C362        C363   1.414       .  S
C363        C364   1.207       .  T
C365        C366   1.212       .  T
C367        C368   1.209   1_655  T
C369        C370   1.206       .  T
C370        C371   1.413       .  S
C371        C372   1.206   1_565  T
C373        C374   1.206       .  T
C374        C375   1.412       .  S
C375        C376   1.206       .  T
C377        C378   1.206       .  T
C378        C379   1.414       .  S
C379        C380   1.207       .  T
C381        C382   1.209       .  T
C383        C384   1.204       .  T
C384        C385   1.409       .  S
C385        C386   1.204       .  T
C387        C388   1.207       .  T
C388        C389   1.413       .  S
C389        C390   1.207       .  T
C391        C392   1.209       .  T
C393        C394   1.210       .  T
C395        C396   1.206       .  T
C396        C397   1.413       .  S
C397        C398   1.206       .  T
C399        C400   1.205       .  T
C400        C401   1.411       .  S
C401        C402   1.205       .  T
C403        C404   1.206       .  T
C404        C405   1.413       .  S
C405        C406   1.206       .  T
C407        C408   1.209       .  T
C409        C410   1.204       .  T
C410        C411   1.409       .  S
C411        C412   1.204       .  T
C413        C414   1.213       .  T
C415        C416   1.206       .  T
C416        C417   1.413       .  S
C417        C418   1.206       .  T
C419        C420   1.210       .  T
C421        C422   1.213       .  T
C423        C424   1.211   1_455  T
