geometry optimzed in LAMMPS
_audit_creation_date              2020-11-30 
_audit_creation_method            'lammps2cif' 
_symmetry_space_group_name_H-M    'P1' 
_symmetry_Int_Tables_number       1 
_symmetry_cell_setting            triclinic 
loop_ 
_symmetry_equiv_pos_as_xyz 
  x,y,z 
_cell_length_a                    32.07483972487632 
_cell_length_b                    32.23537378648963 
_cell_length_c                    37.88625481853861 
_cell_angle_alpha                 90.15217977755417 
_cell_angle_beta                  90.79889060280394 
_cell_angle_gamma                 90.24095645617298 
loop_ 
_atom_site_label 
_atom_site_type_symbol 
_atom_site_fract_x 
_atom_site_fract_y 
_atom_site_fract_z 
_atom_site_charge 
O1          O  0.45846770  0.00700364  0.11596188    -0.57070
C2          C  0.47673541  0.99970495  0.01212443     0.75560
O3          O  0.58446686  0.04388867  0.07276586    -0.58220
C4          C  0.47715332  0.00350934  0.14544933     0.75530
C5          C  0.56380785  0.92109376  0.08426637     0.77930
Cd6        Cd  0.52148904  0.00002593  0.07946789     1.37460
O7          O  0.45822875  0.99435991  0.04098624    -0.57060
O8          O  0.52466978  0.92411616  0.08637629    -0.55870
C9          C  0.56737726  0.07769105  0.08116272     0.77890
O10         O  0.58382493  0.95428353  0.07896305    -0.58240
O11         O  0.51573020  0.00498664  0.01410904    -0.56700
O12         O  0.51629033  0.99875015  0.14464416    -0.56690
O13         O  0.52936892  0.07540984  0.08943805    -0.55860
O14         O  0.63993525  0.61318177  0.07649091    -0.57070
C15         C  0.62960571  0.75563885  0.10181402     0.75560
O16         O  0.58176864  0.67057583  0.16249423    -0.58220
C17         C  0.63361068  0.58598102  0.10031994     0.75530
C18         C  0.71994243  0.66027050  0.14565405     0.77930
Cd19       Cd  0.63734136  0.67022475  0.11984413     1.37460
O20         O  0.63178306  0.72837797  0.07746337    -0.57060
O21         O  0.71189229  0.66734250  0.11331908    -0.55870
C22         C  0.55274724  0.66774190  0.13917372     0.77890
O23         O  0.68968982  0.66197735  0.16700023    -0.58240
O24         O  0.63526453  0.74277390  0.13315514    -0.56700
O25         O  0.62857600  0.59841949  0.13167841    -0.56690
O26         O  0.56404173  0.66605580  0.10731436    -0.55860
O27         O  0.96336269  0.49291537  0.12865466    -0.57070
C28         C  0.96628164  0.51301306  0.23322395     0.75560
O29         O  0.01245234  0.61788108  0.16399051    -0.58220
C30         C  0.96498489  0.51168578  0.09945009     0.75530
C31         C  0.88674250  0.59889076  0.16563327     0.77930
Cd32       Cd  0.96581333  0.55601726  0.16618169     1.37460
O33         O  0.96622612  0.49389870  0.20403618    -0.57060
O34         O  0.88947512  0.55980425  0.16706166    -0.55870
C35         C  0.04608137  0.59764614  0.16590887     0.77890
O36         O  0.92092275  0.61853702  0.16510082    -0.58240
O37         O  0.96635730  0.55222661  0.23179379    -0.56700
O38         O  0.96673994  0.55083943  0.10084249    -0.56690
O39         O  0.04197220  0.55868129  0.16801523    -0.55860
O40         O  0.30435419  0.72721878  0.25306519    -0.57070
C41         C  0.30354497  0.58941784  0.23562404     0.75560
O42         O  0.24410782  0.66084225  0.16163844    -0.58220
C43         C  0.30539312  0.75615498  0.23029436     0.75530
C44         C  0.38057944  0.66965108  0.18496591     0.77930
Cd45       Cd  0.29695738  0.67173259  0.20875584     1.37460
O46         O  0.29409089  0.61882497  0.25656118    -0.57060
O47         O  0.37082730  0.67319431  0.21702620    -0.55870
C48         C  0.21387425  0.65993897  0.18301011     0.77890
O49         O  0.35036163  0.66832576  0.16269633    -0.58240
O50         O  0.31027111  0.59883053  0.20385161    -0.56700
O51         O  0.29782994  0.74628871  0.19841370    -0.56690
O52         O  0.22188188  0.66854361  0.21504668    -0.55860
O53         O  0.96725128  0.50790562  0.03646201    -0.57070
C54         C  0.96605090  0.49052564  0.26690520     0.75560
O55         O  0.00965369  0.38603657  0.31520515    -0.58220
C56         C  0.96489932  0.48915292  0.06568532     0.75530
C57         C  0.88539039  0.40112236  0.00110315     0.77930
Cd58       Cd  0.96473316  0.44463061  0.33261697     1.37470
O59         O  0.96599450  0.50905162  0.29638612    -0.57060
O60         O  0.88845676  0.43876243  0.99210128    -0.55870
C61         C  0.04267836  0.39978419  0.32968451     0.77890
O62         O  0.91933989  0.38345815  0.00897746    -0.58240
O63         O  0.96569825  0.45135513  0.26779122    -0.56700
O64         O  0.96253039  0.44998097  0.06437461    -0.56690
O65         O  0.03950582  0.43369095  0.34619797    -0.55860
O66         O  0.64315565  0.38093438  0.09621110    -0.57070
C67         C  0.62969602  0.24475347  0.06968313     0.75560
O68         O  0.58057721  0.33031762  0.33563736    -0.58220
C69         C  0.63687324  0.41105951  0.07511161     0.75530
C70         C  0.71833020  0.33912214  0.02008102     0.77930
Cd71       Cd  0.63654598  0.32935215  0.04774339     1.37470
O72         O  0.63217310  0.27358422  0.09262986    -0.57060
O73         O  0.71163557  0.33082052  0.05219681    -0.55870
C74         C  0.55156932  0.33338804  0.02483031     0.77890
O75         O  0.68677797  0.33908179  0.99936402    -0.58240
O76         O  0.63388236  0.25554644  0.03775892    -0.56700
O77         O  0.63017396  0.40263243  0.04292433    -0.56690
O78         O  0.56285395  0.33495254  0.05690927    -0.55860
O79         O  0.47259170  0.00662896  0.28266185    -0.57070
C80         C  0.45445264  0.00432625  0.17889820     0.75560
O81         O  0.34576739  0.95761185  0.24864152    -0.58220
C82         C  0.45409943  0.00014405  0.31145994     0.75530
C83         C  0.36687474  0.08138296  0.24976532     0.77930
Cd84       Cd  0.40919557  0.00277501  0.24479593     1.37470
O85         O  0.47298098  0.00061796  0.20837865    -0.57060
O86         O  0.40239479  0.07480856  0.26339695    -0.55870
C87         C  0.36562011  0.92403299  0.24545802     0.77890
O88         O  0.35047046  0.05154262  0.23277560    -0.58240
O89         O  0.41528125  0.00822798  0.17969289    -0.56700
O90         O  0.41506612  0.99440845  0.30954352    -0.56690
O91         O  0.40461588  0.92762030  0.24200125    -0.55860
O92         O  0.30393921  0.27230765  0.24772136    -0.57070
C93         C  0.29551935  0.41508765  0.26357385     0.75560
O94         O  0.23608574  0.33891256  0.32788517    -0.58220
C95         C  0.30409199  0.24677752  0.27343418     0.75530
C96         C  0.37855351  0.33865263  0.31119972     0.77930
Cd97       Cd  0.29465536  0.33267385  0.28700682     1.37460
O98         O  0.29615359  0.38590080  0.24072789    -0.57060
O99         O  0.36840079  0.33677287  0.27882603    -0.55870
C100        C  0.20862015  0.33915708  0.30317508     0.77890
O101        O  0.34878066  0.33796728  0.99991964    -0.58240
O102        O  0.29511494  0.40537106  0.29595139    -0.56700
O103        O  0.29547619  0.26142129  0.30350586    -0.56690
O104        O  0.22183727  0.33340019  0.27218400    -0.55860
C105        C  0.34883466  0.13880453  0.28904570    -0.05030
C106        C  0.34590689  0.12165339  0.25513653     0.00890
C107        C  0.32613202  0.14427903  0.22770549    -0.07680
C108        C  0.31161298  0.18458502  0.23506816    -0.05050
C109        C  0.31569648  0.20242113  0.26889460     0.00880
C110        C  0.33394387  0.17863579  0.29674936    -0.07590
C111        C  0.33944872  0.19505372  0.00096313     0.62790
H112        H  0.36363260  0.12055304  0.30961812     0.13490
H113        H  0.29739852  0.20278481  0.21419415     0.13500
C114        C  0.32180087  0.12667163  0.19064924     0.63030
F115        F  0.35983346  0.16705873  0.02276714    -0.22140
F116        F  0.30085549  0.20257837  0.01545966    -0.19470
F117        F  0.36289492  0.23118452  0.00085155    -0.19150
F118        F  0.29627713  0.09200957  0.19103801    -0.19200
F119        F  0.36060134  0.11576941  0.17820340    -0.19520
F120        F  0.30442928  0.15501387  0.16738525    -0.22190
C121        C  0.49737491  0.35047686  0.31353990    -0.05030
C122        C  0.50681941  0.33571089  0.01415245     0.00890
C123        C  0.47365024  0.32353948  0.03653831    -0.07680
C124        C  0.43246203  0.32609639  0.02364393    -0.05050
C125        C  0.42305492  0.33993893  0.32276231     0.00880
C126        C  0.45612772  0.35313718  0.30066366    -0.07590
C127        C  0.44859969  0.37054151  0.26384840     0.62790
H128        H  0.52289808  0.35999581  0.29692684     0.13490
H129        H  0.40700863  0.31627311  0.04018895     0.13500
C130        C  0.48112517  0.30626311  0.07336497     0.63030
F131        F  0.48458092  0.38706792  0.24965834    -0.22140
F132        F  0.41941426  0.40194471  0.26512741    -0.19470
F133        F  0.43463367  0.33939274  0.24141705    -0.19150
F134        F  0.49787555  0.33670722  0.09516721    -0.19200
F135        F  0.50800919  0.27296632  0.07153263    -0.19520
F136        F  0.44467766  0.29238361  0.08864753    -0.22190
C137        C  0.81087718  0.39796105  0.31652805    -0.05030
C138        C  0.84398749  0.37993143  0.00239477     0.00890
C139        C  0.83589457  0.34429797  0.02332609    -0.07680
C140        C  0.79442521  0.33038514  0.02628652    -0.05050
C141        C  0.76111738  0.35008888  0.00882341     0.00880
C142        C  0.76952975  0.38359690  0.98578840    -0.07590
C143        C  0.73513352  0.40528548  0.29834121     0.62790
H144        H  0.81754471  0.42432756  0.29984435     0.13490
H145        H  0.78733930  0.30450765  0.04341387     0.13500
C146        C  0.87010223  0.32165597  0.04357713     0.63030
F147        F  0.75029946  0.43796634  0.27856615    -0.22140
F148        F  0.70571503  0.42101767  0.98770241    -0.19470
F149        F  0.71623819  0.37737480  0.27536134    -0.19150
F150        F  0.88959065  0.34850568  0.06715260    -0.19200
F151        F  0.89893190  0.30613007  0.02021845    -0.19520
F152        F  0.85467849  0.28852499  0.06266578    -0.22190
C153        C  0.09267881  0.36439555  0.29135964    -0.05030
C154        C  0.08325070  0.37880638  0.32520033     0.00890
C155        C  0.11297855  0.37438201  0.01951959    -0.07680
C156        C  0.15290915  0.35942220  0.01139583    -0.05050
C157        C  0.16379530  0.34821602  0.31009835     0.00880
C158        C  0.13231220  0.34890426  0.28309095    -0.07590
C159        C  0.13976575  0.33423661  0.24547451     0.62790
H160        H  0.06904331  0.36721393  0.27083662     0.13490
H161        H  0.17638035  0.35771577  0.03212093     0.13500
C162        C  0.10232841  0.38430971  0.05753804     0.63030
F163        F  0.10328367  0.33307076  0.22550834    -0.22140
F164        F  0.15593259  0.29451643  0.24585319    -0.19470
F165        F  0.16701177  0.36089962  0.22884679    -0.19150
F166        F  0.06568947  0.36430335  0.06638233    -0.19200
F167        F  0.09752148  0.42659415  0.06180062    -0.19520
F168        F  0.13323893  0.37131468  0.08081694    -0.22190
C169        C  0.33480951  0.47692267  0.24650902    -0.05030
C170        C  0.29620505  0.45902096  0.25390372     0.00890
C171        C  0.26060135  0.48424240  0.25760745    -0.07680
C172        C  0.26490957  0.52737588  0.25377537    -0.05080
C173        C  0.30351172  0.54544516  0.24607887     0.00880
C174        C  0.33924712  0.52002156  0.24283451    -0.07590
C175        C  0.38236430  0.53852834  0.23897195     0.62790
H176        H  0.36178305  0.45692355  0.24513165     0.13490
H177        H  0.23788811  0.54723908  0.25570487     0.13500
C178        C  0.21814332  0.46522783  0.26433984     0.63030
F179        F  0.41286657  0.50838196  0.23676904    -0.22140
F180        F  0.39090965  0.56253242  0.26846411    -0.19470
F181        F  0.38439731  0.56254797  0.20887838    -0.19150
F182        F  0.21839073  0.44512585  0.29652859    -0.19200
F183        F  0.20870361  0.43697517  0.23787327    -0.19520
F184        F  0.18703274  0.49484846  0.26474067    -0.22190
C185        C  0.37158338  0.84915893  0.25589273    -0.05030
C186        C  0.34576500  0.88223319  0.24587101     0.00890
C187        C  0.30437755  0.87367881  0.23389821    -0.07680
C188        C  0.29127719  0.83187367  0.23098908    -0.05050
C189        C  0.31808902  0.79901112  0.23953921     0.00880
C190        C  0.35897883  0.80775165  0.25201527    -0.07590
C191        C  0.39087390  0.77370089  0.25726495     0.62790
H192        H  0.40294187  0.85597912  0.26515674     0.13490
H193        H  0.26039868  0.82437759  0.22091960     0.13500
C194        C  0.27470637  0.90799349  0.22291007     0.63030
F195        F  0.42911018  0.78891029  0.26890508    -0.22140
F196        F  0.39679273  0.75409109  0.22526761    -0.19470
F197        F  0.37711846  0.74544467  0.28192468    -0.19150
F198        F  0.29213149  0.93128706  0.19623554    -0.19200
F199        F  0.26675942  0.93324092  0.25158304    -0.19520
F200        F  0.23692893  0.89245795  0.21051733    -0.22190
C201        C  0.13814890  0.67341135  0.17694905    -0.05030
C202        C  0.17160837  0.64620597  0.17235625     0.00890
C203        C  0.16374343  0.60435341  0.16320264    -0.07680
C204        C  0.12228344  0.59073545  0.15988904    -0.05050
C205        C  0.08835867  0.61723494  0.16591718     0.00880
C206        C  0.09635058  0.65990971  0.17342322    -0.07590
C207        C  0.06152237  0.69103405  0.17864222     0.62790
H208        H  0.14517926  0.70519143  0.18430467     0.13490
H209        H  0.11615629  0.55853308  0.15347601     0.13500
C210        C  0.19905266  0.57352472  0.15912061     0.63030
F211        F  0.07674753  0.73044807  0.18591118    -0.22140
F212        F  0.03704806  0.67905933  0.20663847    -0.19470
F213        F  0.03732125  0.69344056  0.14821469    -0.19150
F214        F  0.22213232  0.57175460  0.19011437    -0.19200
F215        F  0.22457445  0.58578339  0.13193322    -0.19520
F216        F  0.18459521  0.53389780  0.15161973    -0.22190
C217        C  0.67200121  0.52099153  0.09267541    -0.05030
C218        C  0.63347359  0.54129125  0.09304620     0.00890
C219        C  0.59598685  0.51809652  0.09127558    -0.07680
C220        C  0.59837097  0.47484508  0.08730027    -0.05050
C221        C  0.63689754  0.45459050  0.08634782     0.00880
C222        C  0.67436119  0.47761218  0.08955808    -0.07590
C223        C  0.71642503  0.45629004  0.08949474     0.62790
H224        H  0.70019735  0.53941031  0.09533002     0.13490
H225        H  0.57017802  0.45650392  0.08413674     0.13500
C226        C  0.55385728  0.53919654  0.09269375     0.63030
F227        F  0.74900909  0.48435965  0.09309679    -0.22140
F228        F  0.72141845  0.43495032  0.05818091    -0.19470
F229        F  0.71874394  0.42863328  0.11727990    -0.19150
F230        F  0.55028379  0.56687077  0.06503002    -0.19200
F231        F  0.55006477  0.56037058  0.12427557    -0.19520
F232        F  0.52127634  0.51098811  0.09003775    -0.22190
C233        C  0.49968290  0.66246000  0.18518021    -0.05030
C234        C  0.50804827  0.66638553  0.14916156     0.00890
C235        C  0.47405142  0.66915633  0.12467499    -0.07680
C236        C  0.43323616  0.67002571  0.13780639    -0.05050
C237        C  0.42498199  0.66745321  0.17404523     0.00880
C238        C  0.45904326  0.66235561  0.19826271    -0.07590
C239        C  0.45390503  0.65673671  0.23784152     0.62790
H240        H  0.52568197  0.65976607  0.20348992     0.13490
H241        H  0.40718047  0.67308298  0.11958440     0.13500
C242        C  0.47997175  0.67143639  0.08493561     0.63030
F243        F  0.49065531  0.64494980  0.25453212    -0.22140
F244        F  0.42509103  0.62613797  0.24430600    -0.19470
F245        F  0.44120280  0.69340339  0.25298791    -0.19150
F246        F  0.50012734  0.63622829  0.07334234    -0.19200
F247        F  0.50303637  0.70632201  0.07659526    -0.19520
F248        F  0.44239017  0.67375259  0.06662115    -0.22190
C249        C  0.79599541  0.67039802  0.14196407    -0.05030
C250        C  0.76264895  0.64858271  0.15681243     0.00890
C251        C  0.77071363  0.61252269  0.17706456    -0.07680
C252        C  0.81210294  0.59882553  0.18063627    -0.05050
C253        C  0.84539185  0.61952511  0.16446515     0.00880
C254        C  0.83746452  0.65668383  0.14547678    -0.07590
C255        C  0.87194827  0.68083737  0.12752783     0.62790
H256        H  0.78897083  0.69775617  0.12647496     0.13490
H257        H  0.81869801  0.57080495  0.19536377     0.13500
C258        C  0.73573907  0.58704305  0.19300226     0.63030
F259        F  0.85662532  0.71434625  0.10866574    -0.22140
F260        F  0.89259631  0.65533332  0.10418154    -0.19470
F261        F  0.89980610  0.69594968  0.15265326    -0.19150
F262        F  0.70813538  0.57435309  0.16672734    -0.19200
F263        F  0.71486604  0.61062657  0.21758010    -0.19520
F264        F  0.75050029  0.55189948  0.20990404    -0.22190
C265        C  0.59855071  0.85935074  0.05908960    -0.05030
C266        C  0.58485626  0.88089878  0.08890488     0.00890
C267        C  0.58985872  0.86326642  0.12268844    -0.07680
C268        C  0.60655931  0.82324391  0.12544341    -0.05050
C269        C  0.61802913  0.79996259  0.09554060     0.00880
C270        C  0.61513520  0.81890705  0.06167246    -0.07590
C271        C  0.62898716  0.79699965  0.02834745     0.62790
H272        H  0.59477348  0.87401552  0.03355237     0.13490
H273        H  0.60921591  0.80931150  0.15133411     0.13500
C274        C  0.57728555  0.88677163  0.15568067     0.63030
F275        F  0.62827234  0.82317506  0.99942474    -0.22140
F276        F  0.60263646  0.76395260  0.02095271    -0.19470
F277        F  0.66939894  0.78289452  0.03275502    -0.19150
F278        F  0.53478505  0.89379165  0.15494034    -0.19200
F279        F  0.59807211  0.92443671  0.15716513    -0.19520
F280        F  0.58688811  0.86508551  0.18620681    -0.22190
C281        C  0.57967677  0.14717867  0.10728536    -0.05030
C282        C  0.58983190  0.11808134  0.08115217     0.00890
C283        C  0.61840639  0.12935877  0.05457516    -0.07680
C284        C  0.63290286  0.17057255  0.05353253    -0.05050
C285        C  0.62047624  0.20058934  0.07822015     0.00880
C286        C  0.59512220  0.18817219  0.10680902    -0.07590
C287        C  0.58342797  0.21780811  0.13626797     0.62790
H288        H  0.55867515  0.13759103  0.12791790     0.13490
H289        H  0.65321831  0.18014241  0.03241391     0.13500
C290        C  0.63212466  0.09888538  0.02637693     0.63030
F291        F  0.55893375  0.19878598  0.16137243    -0.22140
F292        F  0.56128285  0.25093918  0.12274703    -0.19470
F293        F  0.61922109  0.23219136  0.15307617    -0.19150
F294        F  0.59765305  0.08326727  0.34170493    -0.19200
F295        F  0.65391430  0.06668118  0.04195053    -0.19520
F296        F  0.65799783  0.11727724  0.00193612    -0.22190
O297        O  0.45846770  0.00700365  0.44929521    -0.57070
C298        C  0.47673542  0.99970494  0.34545777     0.75560
O299        O  0.58446682  0.04388868  0.40609911    -0.58220
C300        C  0.47715331  0.00350929  0.47878267     0.75530
C301        C  0.56380790  0.92109377  0.41759969     0.77930
Cd302      Cd  0.52148904  0.00002591  0.41280123     1.37460
O303        O  0.45822877  0.99435983  0.37431957    -0.57060
O304        O  0.52466980  0.92411611  0.41970941    -0.55870
C305        C  0.56737725  0.07769105  0.41449604     0.77890
O306        O  0.58382498  0.95428358  0.41229658    -0.58240
O307        O  0.51573020  0.00498670  0.34744238    -0.56700
O308        O  0.51629031  0.99875005  0.47797749    -0.56690
O309        O  0.52936893  0.07540981  0.42277144    -0.55860
O310        O  0.63993525  0.61318176  0.40982423    -0.57070
C311        C  0.62960575  0.75563886  0.43514735     0.75560
O312        O  0.58176864  0.67057583  0.49582752    -0.58220
C313        C  0.63361066  0.58598102  0.43365327     0.75530
C314        C  0.71994243  0.66027049  0.47898737     0.77930
Cd315      Cd  0.63734136  0.67022475  0.45317744     1.37460
O316        O  0.63178310  0.72837799  0.41079669    -0.57060
O317        O  0.71189229  0.66734248  0.44665239    -0.55870
C318        C  0.55274724  0.66774193  0.47250701     0.77890
O319        O  0.68968981  0.66197735  0.50033354    -0.58240
O320        O  0.63526454  0.74277390  0.46648846    -0.56700
O321        O  0.62857598  0.59841950  0.46501173    -0.56690
O322        O  0.56404173  0.66605584  0.44064765    -0.55860
O323        O  0.96336265  0.49291537  0.46198799    -0.57070
C324        C  0.96628166  0.51301306  0.56655729     0.75560
O325        O  0.01245233  0.61788108  0.49732383    -0.58220
C326        C  0.96498488  0.51168578  0.43278342     0.75530
C327        C  0.88674250  0.59889075  0.49896660     0.77930
Cd328      Cd  0.96581333  0.55601726  0.49951502     1.37460
O329        O  0.96622614  0.49389870  0.53736951    -0.57060
O330        O  0.88947512  0.55980425  0.50039499    -0.55870
C331        C  0.04608137  0.59764614  0.49924220     0.77890
O332        O  0.92092274  0.61853702  0.49843415    -0.58240
O333        O  0.96635731  0.55222661  0.56512712    -0.56700
O334        O  0.96673997  0.55083943  0.43417582    -0.56690
O335        O  0.04197220  0.55868129  0.50134856    -0.55860
O336        O  0.30435417  0.72721876  0.58639856    -0.57070
C337        C  0.30354498  0.58941786  0.56895737     0.75560
O338        O  0.24410782  0.66084226  0.49497176    -0.58220
C339        C  0.30539307  0.75615498  0.56362775     0.75530
C340        C  0.38057944  0.66965113  0.51829921     0.77930
Cd341      Cd  0.29695738  0.67173261  0.54208916     1.37460
O342        O  0.29409089  0.61882499  0.58989450    -0.57060
O343        O  0.37082730  0.67319433  0.55035951    -0.55870
C344        C  0.21387425  0.65993898  0.51634342     0.77890
O345        O  0.35036163  0.66832583  0.49602964    -0.58240
O346        O  0.31027113  0.59883055  0.53718494    -0.56700
O347        O  0.29782990  0.74628875  0.53174708    -0.56690
O348        O  0.22188188  0.66854361  0.54837999    -0.55860
O349        O  0.96725131  0.50790562  0.36979534    -0.57070
C350        C  0.96605093  0.49052564  0.60023854     0.75560
O351        O  0.00965374  0.38603657  0.64853849    -0.58220
C352        C  0.96489931  0.48915292  0.39901866     0.75530
C353        C  0.88539036  0.40112236  0.33443648     0.77930
Cd354      Cd  0.96473320  0.44463062  0.66595030     1.37470
O355        O  0.96599455  0.50905162  0.62971945    -0.57060
O356        O  0.88845674  0.43876243  0.32543460    -0.55870
C357        C  0.04267841  0.39978421  0.66301784     0.77890
O358        O  0.91933987  0.38345815  0.34231078    -0.58240
O359        O  0.96569828  0.45135513  0.60112456    -0.56700
O360        O  0.96253033  0.44998097  0.39770794    -0.56690
O361        O  0.03950587  0.43369098  0.67953128    -0.55860
O362        O  0.64315561  0.38093437  0.42954445    -0.57070
C363        C  0.62969599  0.24475348  0.40301645     0.75560
O364        O  0.58057726  0.33031762  0.66897069    -0.58220
C365        C  0.63687323  0.41105951  0.40844496     0.75530
C366        C  0.71833017  0.33912214  0.35341434     0.77930
Cd367      Cd  0.63654595  0.32935216  0.38107673     1.37470
O368        O  0.63217307  0.27358422  0.42596319    -0.57060
O369        O  0.71163554  0.33082052  0.38553014    -0.55870
C370        C  0.55156930  0.33338806  0.35816364     0.77890
O371        O  0.68677794  0.33908180  0.33269734    -0.58240
O372        O  0.63388233  0.25554645  0.37109225    -0.56700
O373        O  0.63017396  0.40263244  0.37625767    -0.56690
O374        O  0.56285392  0.33495256  0.39024260    -0.55860
O375        O  0.47259170  0.00662895  0.61599518    -0.57070
C376        C  0.45445262  0.00432620  0.51223154     0.75560
O377        O  0.34576735  0.95761186  0.58197484    -0.58220
C378        C  0.45409943  0.00014405  0.64479328     0.75530
C379        C  0.36687474  0.08138295  0.58309866     0.77930
Cd380      Cd  0.40919555  0.00277499  0.57812927     1.37470
O381        O  0.47298096  0.00061786  0.54171198    -0.57060
O382        O  0.40239480  0.07480854  0.59673029    -0.55870
C383        C  0.36562005  0.92403299  0.57879141     0.77890
O384        O  0.35047046  0.05154262  0.56610894    -0.58240
O385        O  0.41528124  0.00822797  0.51302623    -0.56700
O386        O  0.41506612  0.99440846  0.64287686    -0.56690
O387        O  0.40461583  0.92762027  0.57533468    -0.55860
O388        O  0.30393926  0.27230765  0.58105469    -0.57070
C389        C  0.29551941  0.41508767  0.59690719     0.75560
O390        O  0.23608579  0.33891258  0.66121849    -0.58220
C391        C  0.30409203  0.24677752  0.60676751     0.75530
C392        C  0.37855356  0.33865263  0.64453304     0.77930
Cd393      Cd  0.29465541  0.33267386  0.62034014     1.37460
O394        O  0.29615364  0.38590082  0.57406123    -0.57060
O395        O  0.36840084  0.33677286  0.61215935    -0.55870
C396        C  0.20862020  0.33915710  0.63650840     0.77890
O397        O  0.34878063  0.33796729  0.33325297    -0.58240
O398        O  0.29511502  0.40537107  0.62928472    -0.56700
O399        O  0.29547624  0.26142130  0.63683919    -0.56690
O400        O  0.22183731  0.33340021  0.60551732    -0.55860
C401        C  0.34883470  0.13880453  0.62237903    -0.05030
C402        C  0.34590690  0.12165338  0.58846987     0.00890
C403        C  0.32613203  0.14427902  0.56103884    -0.07680
C404        C  0.31161299  0.18458501  0.56840150    -0.05050
C405        C  0.31569651  0.20242113  0.60222793     0.00880
C406        C  0.33394392  0.17863580  0.63008269    -0.07590
C407        C  0.33944861  0.19505369  0.33429648     0.62790
H408        H  0.36363265  0.12055305  0.64295146     0.13490
H409        H  0.29739852  0.20278480  0.54752750     0.13500
C410        C  0.32180084  0.12667160  0.52398259     0.63030
F411        F  0.35983331  0.16705868  0.35610050    -0.22140
F412        F  0.30085536  0.20257835  0.34879298    -0.19470
F413        F  0.36289483  0.23118448  0.33418493    -0.19150
F414        F  0.29627710  0.09200955  0.52437138    -0.19200
F415        F  0.36060131  0.11576937  0.51153674    -0.19520
F416        F  0.30442924  0.15501384  0.50071860    -0.22190
C417        C  0.49737496  0.35047685  0.64687322    -0.05030
C418        C  0.50681938  0.33571091  0.34748578     0.00890
C419        C  0.47365021  0.32353949  0.36987164    -0.07680
C420        C  0.43246200  0.32609640  0.35697726    -0.05050
C421        C  0.42305497  0.33993892  0.65609563     0.00880
C422        C  0.45612777  0.35313717  0.63399698    -0.07590
C423        C  0.44859974  0.37054148  0.59718171     0.62790
H424        H  0.52289813  0.35999580  0.63026016     0.13490
H425        H  0.40700861  0.31627312  0.37352228     0.13500
C426        C  0.48112515  0.30626311  0.40669829     0.63030
F427        F  0.48458097  0.38706789  0.58299165    -0.22140
F428        F  0.41941431  0.40194469  0.59846071    -0.19470
F429        F  0.43463372  0.33939271  0.57475037    -0.19150
F430        F  0.49787553  0.33670722  0.42850054    -0.19200
F431        F  0.50800917  0.27296633  0.40486595    -0.19520
F432        F  0.44467763  0.29238360  0.42198086    -0.22190
C433        C  0.81087723  0.39796105  0.64986139    -0.05030
C434        C  0.84398746  0.37993143  0.33572809     0.00890
C435        C  0.83589454  0.34429797  0.35665941    -0.07680
C436        C  0.79442518  0.33038515  0.35961985    -0.05050
C437        C  0.76111735  0.35008889  0.34215673     0.00880
C438        C  0.76952972  0.38359690  0.31912172    -0.07590
C439        C  0.73513357  0.40528549  0.63167455     0.62790
H440        H  0.81754475  0.42432757  0.63317770     0.13490
H441        H  0.78733927  0.30450767  0.37674720     0.13500
C442        C  0.87010220  0.32165598  0.37691047     0.63030
F443        F  0.75029951  0.43796635  0.61189949    -0.22140
F444        F  0.70571501  0.42101767  0.32103571    -0.19470
F445        F  0.71623824  0.37737481  0.60869468    -0.19150
F446        F  0.88959062  0.34850570  0.40048593    -0.19200
F447        F  0.89893187  0.30613007  0.35355179    -0.19520
F448        F  0.85467845  0.28852501  0.39599912    -0.22190
C449        C  0.09267886  0.36439558  0.62469296    -0.05030
C450        C  0.08325075  0.37880640  0.65853365     0.00890
C451        C  0.11297852  0.37438200  0.35285293    -0.07680
C452        C  0.15290912  0.35942220  0.34472916    -0.05050
C453        C  0.16379535  0.34821604  0.64343167     0.00880
C454        C  0.13231225  0.34890429  0.61642427    -0.07590
C455        C  0.13976580  0.33423664  0.57880783     0.62790
H456        H  0.06904336  0.36721396  0.60416994     0.13490
H457        H  0.17638032  0.35771578  0.36545426     0.13500
C458        C  0.10232838  0.38430970  0.39087138     0.63030
F459        F  0.10328372  0.33307080  0.55884165    -0.22140
F460        F  0.15593264  0.29451646  0.57918650    -0.19470
F461        F  0.16701183  0.36089965  0.56218010    -0.19150
F462        F  0.06568944  0.36430335  0.39971567    -0.19200
F463        F  0.09752145  0.42659414  0.39513396    -0.19520
F464        F  0.13323890  0.37131468  0.41415028    -0.22190
C465        C  0.33480957  0.47692270  0.57984238    -0.05030
C466        C  0.29620511  0.45902098  0.58723706     0.00890
C467        C  0.26060140  0.48424241  0.59094078    -0.07680
C468        C  0.26490960  0.52737588  0.58710868    -0.05080
C469        C  0.30351175  0.54544518  0.57941220     0.00880
C470        C  0.33924716  0.52002160  0.57616787    -0.07590
C471        C  0.38236434  0.53852840  0.57230532     0.62790
H472        H  0.36178312  0.45692359  0.57846503     0.13490
H473        H  0.23788813  0.54723908  0.58903818     0.13500
C474        C  0.21814338  0.46522782  0.59767315     0.63030
F475        F  0.41286663  0.50838204  0.57010245    -0.22140
F476        F  0.39090964  0.56253251  0.60179747    -0.19470
F477        F  0.38439735  0.56254800  0.54221174    -0.19150
F478        F  0.21839077  0.44512584  0.62986191    -0.19200
F479        F  0.20870368  0.43697515  0.57120658    -0.19520
F480        F  0.18703278  0.49484844  0.59807397    -0.22190
C481        C  0.37158324  0.84915895  0.58922628    -0.05030
C482        C  0.34576492  0.88223320  0.57920443     0.00890
C483        C  0.30437751  0.87367882  0.56723151    -0.07680
C484        C  0.29127716  0.83187368  0.56432239    -0.05050
C485        C  0.31808894  0.79901114  0.57287264     0.00880
C486        C  0.35897869  0.80775167  0.58534883    -0.07590
C487        C  0.39087374  0.77370091  0.59059862     0.62790
H488        H  0.40294169  0.85597916  0.59849038     0.13490
H489        H  0.26039869  0.82437760  0.55425281     0.13500
C490        C  0.27470640  0.90799349  0.55624323     0.63030
F491        F  0.42910998  0.78891032  0.60223884    -0.22140
F492        F  0.39679269  0.75409109  0.55860132    -0.19470
F493        F  0.37711821  0.74544472  0.61525833    -0.19150
F494        F  0.29213164  0.93128701  0.52956873    -0.19200
F495        F  0.26675934  0.93324098  0.58491615    -0.19520
F496        F  0.23692900  0.89245795  0.54385041    -0.22190
C497        C  0.13814890  0.67341136  0.51028236    -0.05030
C498        C  0.17160837  0.64620598  0.50568956     0.00890
C499        C  0.16374343  0.60435341  0.49653596    -0.07680
C500        C  0.12228344  0.59073546  0.49322237    -0.05050
C501        C  0.08835867  0.61723495  0.49925050     0.00880
C502        C  0.09635058  0.65990971  0.50675653    -0.07590
C503        C  0.06152237  0.69103406  0.51197552     0.62790
H504        H  0.14517925  0.70519144  0.51763797     0.13490
H505        H  0.11615629  0.55853308  0.48680934     0.13500
C506        C  0.19905266  0.57352473  0.49245394     0.63030
F507        F  0.07674753  0.73044808  0.51924448    -0.22140
F508        F  0.03704806  0.67905934  0.53997178    -0.19470
F509        F  0.03732124  0.69344055  0.48154800    -0.19150
F510        F  0.22213232  0.57175462  0.52344770    -0.19200
F511        F  0.22457445  0.58578339  0.46526654    -0.19520
F512        F  0.18459521  0.53389780  0.48495306    -0.22190
C513        C  0.67200120  0.52099153  0.42600873    -0.05030
C514        C  0.63347358  0.54129124  0.42637954     0.00890
C515        C  0.59598684  0.51809651  0.42460896    -0.07680
C516        C  0.59837096  0.47484507  0.42063366    -0.05050
C517        C  0.63689753  0.45459050  0.41968118     0.00880
C518        C  0.67436118  0.47761218  0.42289140    -0.07590
C519        C  0.71642503  0.45629005  0.42282803     0.62790
H520        H  0.70019733  0.53941032  0.42866330     0.13490
H521        H  0.57017801  0.45650390  0.41747015     0.13500
C522        C  0.55385726  0.53919651  0.42602713     0.63030
F523        F  0.74900908  0.48435967  0.42643006    -0.22140
F524        F  0.72141842  0.43495033  0.39151420    -0.19470
F525        F  0.71874397  0.42863329  0.45061320    -0.19150
F526        F  0.55028374  0.56687071  0.39836338    -0.19200
F527        F  0.55006477  0.56037060  0.45760894    -0.19520
F528        F  0.52127633  0.51098808  0.42337117    -0.22190
C529        C  0.49968290  0.66246008  0.51851351    -0.05030
C530        C  0.50804827  0.66638556  0.48249486     0.00890
C531        C  0.47405141  0.66915631  0.45800828    -0.07680
C532        C  0.43323615  0.67002571  0.47113969    -0.05050
C533        C  0.42498199  0.66745326  0.50737853     0.00880
C534        C  0.45904326  0.66235569  0.53159602    -0.07590
C535        C  0.45390504  0.65673679  0.57117482     0.62790
H536        H  0.52568197  0.65976618  0.53682323     0.13490
H537        H  0.40718046  0.67308295  0.45291770     0.13500
C538        C  0.47997174  0.67143628  0.41826890     0.63030
F539        F  0.49065533  0.64494995  0.58786543    -0.22140
F540        F  0.42509109  0.62613801  0.57763931    -0.19470
F541        F  0.44120275  0.69340345  0.58632122    -0.19150
F542        F  0.50012736  0.63622818  0.40667569    -0.19200
F543        F  0.50303632  0.70632190  0.40992849    -0.19520
F544        F  0.44239015  0.67375240  0.39995444    -0.22190
C545        C  0.79599540  0.67039801  0.47529739    -0.05030
C546        C  0.76264894  0.64858271  0.49014575     0.00890
C547        C  0.77071362  0.61252269  0.51039788    -0.07680
C548        C  0.81210293  0.59882553  0.51396960    -0.05050
C549        C  0.84539185  0.61952510  0.49779848     0.00880
C550        C  0.83746451  0.65668383  0.47881011    -0.07590
C551        C  0.87194827  0.68083736  0.46086117     0.62790
H552        H  0.78897083  0.69775616  0.45980828     0.13490
H553        H  0.81869800  0.57080494  0.52869709     0.13500
C554        C  0.73573906  0.58704305  0.52633557     0.63030
F555        F  0.85662532  0.71434624  0.44199907    -0.22140
F556        F  0.89259631  0.65533332  0.43751488    -0.19470
F557        F  0.89980609  0.69594968  0.48598659    -0.19150
F558        F  0.70813538  0.57435309  0.50006066    -0.19200
F559        F  0.71486603  0.61062656  0.55091341    -0.19520
F560        F  0.75050028  0.55189947  0.54323736    -0.22190
C561        C  0.59855075  0.85935074  0.39242292    -0.05030
C562        C  0.58485632  0.88089879  0.42223820     0.00890
C563        C  0.58985880  0.86326645  0.45602176    -0.07680
C564        C  0.60655938  0.82324394  0.45877674    -0.05050
C565        C  0.61802919  0.79996261  0.42887392     0.00880
C566        C  0.61513525  0.81890706  0.39500578    -0.07590
C567        C  0.62898722  0.79699966  0.36168077     0.62790
H568        H  0.59477352  0.87401552  0.36688568     0.13490
H569        H  0.60921599  0.80931153  0.48466743     0.13500
C570        C  0.57728562  0.88677167  0.48901398     0.63030
F571        F  0.62827241  0.82317508  0.33275806    -0.22140
F572        F  0.60263652  0.76395261  0.35428602    -0.19470
F573        F  0.66939899  0.78289453  0.36608835    -0.19150
F574        F  0.53478513  0.89379172  0.48827364    -0.19200
F575        F  0.59807221  0.92443672  0.49049846    -0.19520
F576        F  0.58688815  0.86508554  0.51954013    -0.22190
C577        C  0.57967674  0.14717867  0.44061867    -0.05030
C578        C  0.58983188  0.11808134  0.41448549     0.00890
C579        C  0.61840637  0.12935878  0.38790848    -0.07680
C580        C  0.63290284  0.17057255  0.38686586    -0.05050
C581        C  0.62047622  0.20058934  0.41155347     0.00880
C582        C  0.59512217  0.18817219  0.44014234    -0.07590
C583        C  0.58342793  0.21780811  0.46960129     0.62790
H584        H  0.55867512  0.13759103  0.46125121     0.13490
H585        H  0.65321830  0.18014242  0.36574725     0.13500
C586        C  0.63212466  0.09888539  0.35971026     0.63030
F587        F  0.55893371  0.19878598  0.49470574    -0.22140
F588        F  0.56128281  0.25093918  0.45608035    -0.19470
F589        F  0.61922105  0.23219136  0.48640950    -0.19150
F590        F  0.59765304  0.08326729  0.67503823    -0.19200
F591        F  0.65391430  0.06668119  0.37528387    -0.19520
F592        F  0.65799784  0.11727726  0.33526946    -0.22190
O593        O  0.45846770  0.00700366  0.78262854    -0.57070
C594        C  0.47673543  0.99970496  0.67879110     0.75560
O595        O  0.58446683  0.04388869  0.73943240    -0.58220
C596        C  0.47715331  0.00350931  0.81211600     0.75530
C597        C  0.56380789  0.92109377  0.75093302     0.77930
Cd598      Cd  0.52148905  0.00002592  0.74613456     1.37460
O599        O  0.45822877  0.99435986  0.70765290    -0.57060
O600        O  0.52466979  0.92411611  0.75304267    -0.55870
C601        C  0.56737726  0.07769106  0.74782935     0.77890
O602        O  0.58382499  0.95428359  0.74562998    -0.58240
O603        O  0.51573021  0.00498670  0.68077571    -0.56700
O604        O  0.51629032  0.99875007  0.81131082    -0.56690
O605        O  0.52936895  0.07540982  0.75610478    -0.55860
O606        O  0.63993525  0.61318177  0.74315756    -0.57070
C607        C  0.62960573  0.75563886  0.76848068     0.75560
O608        O  0.58176865  0.67057583  0.82916088    -0.58220
C609        C  0.63361066  0.58598103  0.76698659     0.75530
C610        C  0.71994243  0.66027048  0.81232071     0.77930
Cd611      Cd  0.63734136  0.67022475  0.78651079     1.37460
O612        O  0.63178308  0.72837798  0.74413003    -0.57060
O613        O  0.71189229  0.66734248  0.77998573    -0.55870
C614        C  0.55274724  0.66774192  0.80584037     0.77890
O615        O  0.68968982  0.66197735  0.83366688    -0.58240
O616        O  0.63526454  0.74277390  0.79982180    -0.56700
O617        O  0.62857597  0.59841950  0.79834506    -0.56690
O618        O  0.56404174  0.66605583  0.77398101    -0.55860
O619        O  0.96336272  0.49291538  0.79532133    -0.57070
C620        C  0.96628165  0.51301306  0.89989062     0.75560
O621        O  0.01245234  0.61788109  0.83065718    -0.58220
C622        C  0.96498491  0.51168578  0.76611676     0.75530
C623        C  0.88674250  0.59889075  0.83229994     0.77930
Cd624      Cd  0.96581335  0.55601726  0.83284836     1.37460
O625        O  0.96622609  0.49389870  0.87070285    -0.57060
O626        O  0.88947513  0.55980425  0.83372832    -0.55870
C627        C  0.04608138  0.59764615  0.83257554     0.77890
O628        O  0.92092275  0.61853702  0.83176749    -0.58240
O629        O  0.96635736  0.55222661  0.89846046    -0.56700
O630        O  0.96673995  0.55083944  0.76750916    -0.56690
O631        O  0.04197221  0.55868129  0.83468189    -0.55860
O632        O  0.30435419  0.72721876  0.91973187    -0.57070
C633        C  0.30354498  0.58941784  0.90229071     0.75560
O634        O  0.24410784  0.66084225  0.82830510    -0.58220
C635        C  0.30539311  0.75615497  0.89696106     0.75530
C636        C  0.38057945  0.66965109  0.85163257     0.77930
Cd637      Cd  0.29695739  0.67173259  0.87542250     1.37460
O638        O  0.29409089  0.61882497  0.92322784    -0.57060
O639        O  0.37082731  0.67319431  0.88369286    -0.55870
C640        C  0.21387426  0.65993898  0.84967676     0.77890
O641        O  0.35036164  0.66832578  0.82936299    -0.58240
O642        O  0.31027112  0.59883053  0.87051827    -0.56700
O643        O  0.29782993  0.74628872  0.86508039    -0.56690
O644        O  0.22188189  0.66854361  0.88171333    -0.55860
O645        O  0.96725131  0.50790563  0.70312868    -0.57070
C646        C  0.96605092  0.49052564  0.93357187     0.75560
O647        O  0.00965372  0.38603657  0.98187181    -0.58220
C648        C  0.96489935  0.48915292  0.73235199     0.75530
C649        C  0.88539041  0.40112236  0.66776982     0.77930
Cd650      Cd  0.96473318  0.44463061  0.99928364     1.37470
O651        O  0.96599459  0.50905162  0.96305279    -0.57060
O652        O  0.88845678  0.43876244  0.65876794    -0.55870
C653        C  0.04267839  0.39978419  0.99635117     0.77890
O654        O  0.91933991  0.38345815  0.67564413    -0.58240
O655        O  0.96569821  0.45135513  0.93445789    -0.56700
O656        O  0.96253041  0.44998097  0.73104128    -0.56690
O657        O  0.03950584  0.43369095  0.01286464    -0.55860
O658        O  0.64315564  0.38093438  0.76287777    -0.57070
C659        C  0.62969603  0.24475348  0.73634977     0.75560
O660        O  0.58057724  0.33031760  0.00230403    -0.58220
C661        C  0.63687325  0.41105952  0.74177828     0.75530
C662        C  0.71833021  0.33912215  0.68674768     0.77930
Cd663      Cd  0.63654599  0.32935216  0.71441005     1.37470
O664        O  0.63217311  0.27358422  0.75929651    -0.57060
O665        O  0.71163559  0.33082052  0.71886347    -0.55870
C666        C  0.55156934  0.33338806  0.69149696     0.77890
O667        O  0.68677799  0.33908180  0.66603068    -0.58240
O668        O  0.63388237  0.25554646  0.70442557    -0.56700
O669        O  0.63017400  0.40263244  0.70959099    -0.56690
O670        O  0.56285397  0.33495256  0.72357592    -0.55860
O671        O  0.47259171  0.00662889  0.94932851    -0.57070
C672        C  0.45445263  0.00432621  0.84556486     0.75560
O673        O  0.34576738  0.95761185  0.91530816    -0.58220
C674        C  0.45409942  0.00014405  0.97812661     0.75530
C675        C  0.36687477  0.08138295  0.91643198     0.77930
Cd676      Cd  0.40919556  0.00277499  0.91146260     1.37470
O677        O  0.47298097  0.00061790  0.87504531    -0.57060
O678        O  0.40239484  0.07480856  0.93006357    -0.55870
C679        C  0.36562009  0.92403298  0.91212471     0.77890
O680        O  0.35047046  0.05154261  0.89944230    -0.58240
O681        O  0.41528125  0.00822797  0.84635956    -0.56700
O682        O  0.41506610  0.99440851  0.97621020    -0.56690
O683        O  0.40461587  0.92762028  0.90866797    -0.55860
O684        O  0.30393925  0.27230765  0.91438803    -0.57070
C685        C  0.29551938  0.41508765  0.93024052     0.75560
O686        O  0.23608577  0.33891256  0.99455184    -0.58220
C687        C  0.30409203  0.24677752  0.94010085     0.75530
C688        C  0.37855354  0.33865262  0.97786639     0.77930
Cd689      Cd  0.29465539  0.33267384  0.95367349     1.37460
O690        O  0.29615362  0.38590080  0.90739456    -0.57060
O691        O  0.36840082  0.33677286  0.94549270    -0.55870
C692        C  0.20862018  0.33915708  0.96984175     0.77890
O693        O  0.34878068  0.33796729  0.66658629    -0.58240
O694        O  0.29511498  0.40537106  0.96261806    -0.56700
O695        O  0.29547623  0.26142128  0.97017253    -0.56690
O696        O  0.22183729  0.33340019  0.93885067    -0.55860
C697        C  0.34883474  0.13880454  0.95571236    -0.05030
C698        C  0.34590693  0.12165339  0.92180319     0.00890
C699        C  0.32613204  0.14427902  0.89437216    -0.07680
C700        C  0.31161299  0.18458501  0.90173483    -0.05050
C701        C  0.31569653  0.20242113  0.93556127     0.00880
C702        C  0.33394395  0.17863581  0.96341602    -0.07590
C703        C  0.33944867  0.19505371  0.66762981     0.62790
H704        H  0.36363270  0.12055306  0.97628477     0.13490
H705        H  0.29739851  0.20278479  0.88086083     0.13500
C706        C  0.32180084  0.12667160  0.85731592     0.63030
F707        F  0.35983339  0.16705871  0.68943382    -0.22140
F708        F  0.30085544  0.20257838  0.68212632    -0.19470
F709        F  0.36289489  0.23118450  0.66751824    -0.19150
F710        F  0.29627711  0.09200954  0.85770471    -0.19200
F711        F  0.36060131  0.11576938  0.84487006    -0.19520
F712        F  0.30442923  0.15501384  0.83405194    -0.22190
C713        C  0.49737494  0.35047684  0.98020657    -0.05030
C714        C  0.50681943  0.33571091  0.68081910     0.00890
C715        C  0.47365026  0.32353949  0.70320496    -0.07680
C716        C  0.43246205  0.32609641  0.69031058    -0.05050
C717        C  0.42305495  0.33993892  0.98942899     0.00880
C718        C  0.45612775  0.35313717  0.96733033    -0.07590
C719        C  0.44859972  0.37054149  0.93051507     0.62790
H720        H  0.52289811  0.35999579  0.96359351     0.13490
H721        H  0.40700865  0.31627313  0.70685560     0.13500
C722        C  0.48112519  0.30626313  0.74003162     0.63030
F723        F  0.48458095  0.38706789  0.91632501    -0.22140
F724        F  0.41941429  0.40194469  0.93179407    -0.19470
F725        F  0.43463370  0.33939272  0.90808372    -0.19150
F726        F  0.49787557  0.33670725  0.76183386    -0.19200
F727        F  0.50800921  0.27296635  0.73819929    -0.19520
F728        F  0.44467768  0.29238363  0.75531419    -0.22190
C729        C  0.81087721  0.39796105  0.98319473    -0.05030
C730        C  0.84398751  0.37993143  0.66906143     0.00890
C731        C  0.83589458  0.34429798  0.68999275    -0.07680
C732        C  0.79442522  0.33038515  0.69295318    -0.05050
C733        C  0.76111739  0.35008889  0.67549007     0.00880
C734        C  0.76952977  0.38359690  0.65245506    -0.07590
C735        C  0.73513354  0.40528549  0.96500790     0.62790
H736        H  0.81754473  0.42432757  0.96651104     0.13490
H737        H  0.78733932  0.30450767  0.71008054     0.13500
C738        C  0.87010225  0.32165598  0.71024380     0.63030
F739        F  0.75029948  0.43796636  0.94523285    -0.22140
F740        F  0.70571505  0.42101768  0.65436905    -0.19470
F741        F  0.71623821  0.37737482  0.94202803    -0.19150
F742        F  0.88959067  0.34850569  0.73381927    -0.19200
F743        F  0.89893192  0.30613008  0.68688512    -0.19520
F744        F  0.85467850  0.28852500  0.72933244    -0.22190
C745        C  0.09267884  0.36439555  0.95802630    -0.05030
C746        C  0.08325073  0.37880638  0.99186699     0.00890
C747        C  0.11297857  0.37438202  0.68618625    -0.07680
C748        C  0.15290918  0.35942222  0.67806248    -0.05050
C749        C  0.16379533  0.34821602  0.97676502     0.00880
C750        C  0.13231223  0.34890426  0.94975762    -0.07590
C751        C  0.13976578  0.33423661  0.91214117     0.62790
H752        H  0.06904334  0.36721394  0.93750328     0.13490
H753        H  0.17638037  0.35771579  0.69878758     0.13500
C754        C  0.10232843  0.38430972  0.72420470     0.63030
F755        F  0.10328370  0.33307076  0.89217500    -0.22140
F756        F  0.15593262  0.29451643  0.91251985    -0.19470
F757        F  0.16701181  0.36089962  0.89551345    -0.19150
F758        F  0.06568950  0.36430336  0.73304899    -0.19200
F759        F  0.09752149  0.42659416  0.72846728    -0.19520
F760        F  0.13323896  0.37131470  0.74748360    -0.22190
C761        C  0.33480955  0.47692268  0.91317571    -0.05030
C762        C  0.29620508  0.45902096  0.92057039     0.00890
C763        C  0.26060138  0.48424239  0.92427410    -0.07680
C764        C  0.26490958  0.52737587  0.92044201    -0.05080
C765        C  0.30351174  0.54544516  0.91274553     0.00880
C766        C  0.33924714  0.52002157  0.90950120    -0.07590
C767        C  0.38236432  0.53852837  0.90563865     0.62790
H768        H  0.36178309  0.45692356  0.91179836     0.13490
H769        H  0.23788812  0.54723906  0.92237150     0.13500
C770        C  0.21814335  0.46522781  0.93100647     0.63030
F771        F  0.41286661  0.50838200  0.90343577    -0.22140
F772        F  0.39090964  0.56253247  0.93513081    -0.19470
F773        F  0.38439734  0.56254797  0.87554507    -0.19150
F774        F  0.21839074  0.44512582  0.96319523    -0.19200
F775        F  0.20870366  0.43697515  0.90453990    -0.19520
F776        F  0.18703275  0.49484843  0.93140729    -0.22190
C777        C  0.37158333  0.84915893  0.92255949    -0.05030
C778        C  0.34576497  0.88223319  0.91253771     0.00890
C779        C  0.30437754  0.87367881  0.90056486    -0.07680
C780        C  0.29127719  0.83187367  0.89765573    -0.05050
C781        C  0.31808899  0.79901112  0.90620592     0.00880
C782        C  0.35897877  0.80775165  0.91868204    -0.07590
C783        C  0.39087384  0.77370089  0.92393176     0.62790
H784        H  0.40294180  0.85597913  0.93182354     0.13490
H785        H  0.26039869  0.82437759  0.88758621     0.13500
C786        C  0.27470639  0.90799348  0.88957666     0.63030
F787        F  0.42911010  0.78891030  0.93557193    -0.22140
F788        F  0.39679272  0.75409108  0.89193444    -0.19470
F789        F  0.37711836  0.74544469  0.94859149    -0.19150
F790        F  0.29213156  0.93128702  0.86290214    -0.19200
F791        F  0.26675939  0.93324094  0.91824960    -0.19520
F792        F  0.23692897  0.89245794  0.87718388    -0.22190
C793        C  0.13814891  0.67341136  0.84361571    -0.05030
C794        C  0.17160838  0.64620597  0.83902291     0.00890
C795        C  0.16374344  0.60435341  0.82986929    -0.07680
C796        C  0.12228345  0.59073546  0.82655570    -0.05050
C797        C  0.08835868  0.61723495  0.83258384     0.00880
C798        C  0.09635059  0.65990971  0.84008988    -0.07590
C799        C  0.06152238  0.69103406  0.84530888     0.62790
H800        H  0.14517927  0.70519144  0.85097133     0.13490
H801        H  0.11615630  0.55853308  0.82014266     0.13500
C802        C  0.19905267  0.57352473  0.82578726     0.63030
F803        F  0.07674754  0.73044807  0.85257784    -0.22140
F804        F  0.03704808  0.67905933  0.87330514    -0.19470
F805        F  0.03732125  0.69344056  0.81488136    -0.19150
F806        F  0.22213233  0.57175461  0.85678101    -0.19200
F807        F  0.22457446  0.58578340  0.79859986    -0.19520
F808        F  0.18459522  0.53389781  0.81828637    -0.22190
C809        C  0.67200120  0.52099154  0.75934205    -0.05030
C810        C  0.63347358  0.54129125  0.75971286     0.00890
C811        C  0.59598684  0.51809651  0.75794227    -0.07680
C812        C  0.59837098  0.47484507  0.75396698    -0.05050
C813        C  0.63689755  0.45459050  0.75301450     0.00880
C814        C  0.67436119  0.47761220  0.75622472    -0.07590
C815        C  0.71642504  0.45629007  0.75616136     0.62790
H816        H  0.70019734  0.53941034  0.76199662     0.13490
H817        H  0.57017803  0.45650389  0.75080347     0.13500
C818        C  0.55385726  0.53919651  0.75936046     0.63030
F819        F  0.74900909  0.48435970  0.75976338    -0.22140
F820        F  0.72141844  0.43495035  0.72484753    -0.19470
F821        F  0.71874399  0.42863332  0.78394653    -0.19150
F822        F  0.55028374  0.56687071  0.73169671    -0.19200
F823        F  0.55006477  0.56037058  0.79094227    -0.19520
F824        F  0.52127634  0.51098807  0.75670449    -0.22190
C825        C  0.49968291  0.66246005  0.85184687    -0.05030
C826        C  0.50804827  0.66638554  0.81582822     0.00890
C827        C  0.47405142  0.66915631  0.79134164    -0.07680
C828        C  0.43323616  0.67002569  0.80447305    -0.05050
C829        C  0.42498200  0.66745322  0.84071188     0.00880
C830        C  0.45904327  0.66235564  0.86492937    -0.07590
C831        C  0.45390505  0.65673674  0.90450818     0.62790
H832        H  0.52568198  0.65976614  0.87015658     0.13490
H833        H  0.40718047  0.67308294  0.78625105     0.13500
C834        C  0.47997175  0.67143631  0.75160226     0.63030
F835        F  0.49065533  0.64494987  0.92119878    -0.22140
F836        F  0.42509107  0.62613798  0.91097266    -0.19470
F837        F  0.44120278  0.69340341  0.91965457    -0.19150
F838        F  0.50012736  0.63622821  0.74000903    -0.19200
F839        F  0.50303634  0.70632193  0.74326187    -0.19520
F840        F  0.44239016  0.67375245  0.73328780    -0.22190
C841        C  0.79599541  0.67039801  0.80863073    -0.05030
C842        C  0.76264895  0.64858270  0.82347908     0.00890
C843        C  0.77071363  0.61252267  0.84373121    -0.07680
C844        C  0.81210294  0.59882552  0.84730292    -0.05050
C845        C  0.84539185  0.61952509  0.83113182     0.00880
C846        C  0.83746452  0.65668383  0.81214345    -0.07590
C847        C  0.87194827  0.68083737  0.79419451     0.62790
H848        H  0.78897083  0.69775616  0.79314162     0.13490
H849        H  0.81869801  0.57080493  0.86203042     0.13500
C850        C  0.73573906  0.58704302  0.85966889     0.63030
F851        F  0.85662533  0.71434625  0.77533242    -0.22140
F852        F  0.89259632  0.65533333  0.77084822    -0.19470
F853        F  0.89980610  0.69594968  0.81931994    -0.19150
F854        F  0.70813539  0.57435307  0.83339397    -0.19200
F855        F  0.71486603  0.61062653  0.88424674    -0.19520
F856        F  0.75050029  0.55189944  0.87657067    -0.22190
C857        C  0.59855072  0.85935073  0.72575625    -0.05030
C858        C  0.58485631  0.88089879  0.75557153     0.00890
C859        C  0.58985878  0.86326645  0.78935509    -0.07680
C860        C  0.60655936  0.82324394  0.79211007    -0.05050
C861        C  0.61802917  0.79996260  0.76220725     0.00880
C862        C  0.61513522  0.81890705  0.72833911    -0.07590
C863        C  0.62898717  0.79699964  0.69501410     0.62790
H864        H  0.59477349  0.87401551  0.70021901     0.13490
H865        H  0.60921598  0.80931153  0.81800076     0.13500
C866        C  0.57728560  0.88677166  0.82234731     0.63030
F867        F  0.62827235  0.82317505  0.66609138    -0.22140
F868        F  0.60263647  0.76395259  0.68761937    -0.19470
F869        F  0.66939895  0.78289451  0.69942167    -0.19150
F870        F  0.53478511  0.89379173  0.82160695    -0.19200
F871        F  0.59807220  0.92443672  0.82383179    -0.19520
F872        F  0.58688810  0.86508553  0.85287346    -0.22190
C873        C  0.57967677  0.14717867  0.77395199    -0.05030
C874        C  0.58983190  0.11808134  0.74781880     0.00890
C875        C  0.61840639  0.12935879  0.72124179    -0.07680
C876        C  0.63290286  0.17057256  0.72019917    -0.05050
C877        C  0.62047625  0.20058934  0.74488679     0.00880
C878        C  0.59512220  0.18817219  0.77347566    -0.07590
C879        C  0.58342798  0.21780811  0.80293462     0.62790
H880        H  0.55867515  0.13759103  0.79458453     0.13490
H881        H  0.65321831  0.18014242  0.69908055     0.13500
C882        C  0.63212466  0.09888540  0.69304356     0.63030
F883        F  0.55893376  0.19878597  0.82803907    -0.22140
F884        F  0.56128286  0.25093918  0.78941368    -0.19470
F885        F  0.61922110  0.23219135  0.81974282    -0.19150
F886        F  0.59765304  0.08326727  0.00837162    -0.19200
F887        F  0.65391430  0.06668119  0.70861716    -0.19520
F888        F  0.65799784  0.11727727  0.66860275    -0.22190
loop_ 
_geom_bond_atom_site_label_1 
_geom_bond_atom_site_label_2 
_geom_bond_distance 
_geom_bond_site_symmetry_2 
_ccdc_geom_bond_type 
O1            C4   1.266       .  A
O1           Cd6   2.476       .  S
C2           O11   1.263   1_565  A
C2            O7   1.263       .  A
C2          C674   1.470   1_564  S
O3            C9   1.264       .  A
O3           Cd6   2.477       .  S
C4           O12   1.266   1_545  A
C4           C80   1.471       .  S
C5           O10   1.263       .  A
C5            O8   1.263       .  A
C5          C266   1.473       .  S
Cd6          O13   2.470       .  S
Cd6          O12   2.478   1_545  S
Cd6          O11   2.486       .  S
Cd6           O7   2.488   1_545  S
Cd6          O10   2.490   1_545  S
Cd6           O8   2.464   1_545  S
C9           O13   1.265       .  A
C9          C282   1.485       .  S
O14          C17   1.278       .  A
O14         Cd19   2.465       .  S
C15          O24   1.270       .  A
C15          O20   1.275       .  A
C15         C269   1.497       .  S
O16          C22   1.277       .  A
O16         Cd19   2.423       .  S
C17          O25   1.266       .  A
C17         C218   1.466       .  S
C18          O23   1.273       .  A
C18          O21   1.270       .  A
C18         C250   1.479       .  S
Cd19         O26   2.395       .  S
Cd19         O25   2.375       .  S
Cd19         O24   2.392       .  S
Cd19         O20   2.477       .  S
Cd19         O23   2.450       .  S
Cd19         O21   2.410       .  S
C22          O26   1.266       .  A
C22         C234   1.488       .  S
O27          C30   1.264       .  A
O27         Cd32   2.479       .  S
C28          O37   1.265       .  A
C28          O33   1.264       .  A
C28          C54   1.469       .  S
O29          C35   1.264       .  A
O29         Cd32   2.490   1_455  S
C30          O38   1.264       .  A
C30          C56   1.469       .  S
C31          O36   1.264       .  A
C31          O34   1.265       .  A
C31         C253   1.486       .  S
Cd32         O39   2.444   1_655  S
Cd32         O38   2.481       .  S
Cd32         O37   2.489       .  S
Cd32         O33   2.466       .  S
Cd32         O36   2.482       .  S
Cd32         O34   2.453       .  S
C35          O39   1.265       .  A
C35         C205   1.493       .  S
O40          C43   1.273       .  A
O40         Cd45   2.458       .  S
C41          O50   1.263       .  A
C41          O46   1.275       .  A
C41         C173   1.473       .  S
O42          C48   1.272       .  A
O42         Cd45   2.468       .  S
C43          O51   1.268       .  A
C43         C189   1.478       .  S
C44          O49   1.277       .  A
C44          O47   1.263       .  A
C44         C237   1.491       .  S
Cd45         O52   2.425       .  S
Cd45         O51   2.436       .  S
Cd45         O50   2.397       .  S
Cd45         O46   2.493       .  S
Cd45         O49   2.465       .  S
Cd45         O47   2.386       .  S
C48          O52   1.267       .  A
C48         C202   1.475       .  S
O53          C56   1.266       .  A
O53        Cd650   2.476   1_554  S
C54          O63   1.263       .  A
C54          O59   1.265       .  A
O55          C61   1.264       .  A
O55         Cd58   2.474   1_455  S
C56          O64   1.265       .  A
C57          O62   1.263       .  A
C57          O60   1.265   1_554  A
C57         C138   1.492       .  S
Cd58         O65   2.473   1_655  S
Cd58         O63   2.467       .  S
Cd58         O59   2.493       .  S
Cd58        O349   2.476       .  S
Cd58        O360   2.474       .  S
Cd58        O358   2.477       .  S
Cd58        O356   2.464       .  S
O60        Cd650   2.464       .  S
C61          O65   1.263       .  A
C61         C154   1.481       .  S
O62        Cd650   2.477   1_554  S
O64        Cd650   2.474   1_554  S
O66          C69   1.274       .  A
O66         Cd71   2.480       .  S
C67          O76   1.268       .  A
C67          O72   1.272       .  A
C67         C285   1.490       .  S
O68         C370   1.275       .  A
O68        Cd367   2.470       .  S
C69          O77   1.264       .  A
C69         C221   1.465       .  S
C70          O75   1.272   1_554  A
C70          O73   1.268       .  A
C70         C141   1.484       .  S
Cd71         O78   2.401       .  S
Cd71         O77   2.379       .  S
Cd71         O76   2.409       .  S
Cd71         O72   2.483       .  S
Cd71         O75   2.477   1_554  S
Cd71         O73   2.412       .  S
Cd71        O660   2.470       .  S
C74          O78   1.264       .  A
C74         O660   1.275       .  A
C74         C122   1.488       .  S
O79          C82   1.267       .  A
O79         Cd84   2.475       .  S
C80          O89   1.264       .  A
C80          O85   1.264       .  A
O81          C87   1.264       .  A
O81         Cd84   2.503   1_565  S
C82          O90   1.266   1_545  A
C82         C298   1.470   1_545  S
C83          O88   1.265       .  A
C83          O86   1.263       .  A
C83         C106   1.479       .  S
Cd84         O91   2.428   1_545  S
Cd84         O90   2.473   1_545  S
Cd84         O89   2.484       .  S
Cd84         O85   2.485       .  S
Cd84         O88   2.496       .  S
Cd84         O86   2.436       .  S
C87          O91   1.264       .  A
C87         C186   1.488       .  S
O92          C95   1.277       .  A
O92         Cd97   2.468       .  S
C93         O102   1.267       .  A
C93          O98   1.277       .  A
C93         C170   1.464       .  S
O94         C100   1.277       .  A
O94         Cd97   2.460       .  S
C95         O103   1.267       .  A
C95         C109   1.489       .  S
C96          O99   1.266       .  A
C96         O397   1.278       .  A
C96         C125   1.488       .  S
Cd97        O104   2.395       .  S
Cd97        O103   2.382       .  S
Cd97        O102   2.367       .  S
Cd97         O98   2.457       .  S
Cd97         O99   2.393       .  S
Cd97        O397   2.454       .  S
C100        O104   1.267       .  A
C100        C157   1.495       .  S
O101        C688   1.278       .  A
O101       Cd689   2.454       .  S
C105        C106   1.399       .  A
C105        C110   1.403       .  A
C105        H112   1.083       .  S
C106        C107   1.416       .  A
C107        C108   1.411       .  A
C107        C114   1.517       .  S
C108        C109   1.407       .  A
C108        H113   1.083       .  S
C109        C110   1.427       .  A
C110        C407   1.524       .  S
C111        C702   1.524   1_554  S
C111        F115   1.385       .  S
C111        F116   1.383       .  S
C111        F117   1.384       .  S
C114        F118   1.383       .  S
C114        F119   1.383       .  S
C114        F120   1.385       .  S
C121        C126   1.407       .  A
C121        C418   1.402       .  A
C121        H128   1.083       .  S
C122        C123   1.424       .  A
C122        C713   1.402   1_554  A
C123        C124   1.405       .  A
C123        C130   1.520       .  S
C124        C717   1.401   1_554  A
C124        H129   1.083       .  S
C125        C126   1.425       .  A
C125        C420   1.401       .  A
C126        C127   1.521       .  S
C127        F131   1.385       .  S
C127        F132   1.383       .  S
C127        F133   1.383       .  S
C130        F134   1.383       .  S
C130        F135   1.382       .  S
C130        F136   1.385       .  S
C137        C434   1.407       .  A
C137        C438   1.408       .  A
C137        H144   1.083       .  S
C138        C139   1.423       .  A
C138        C729   1.407   1_554  A
C139        C140   1.408       .  A
C139        C146   1.520       .  S
C140        C141   1.404       .  A
C140        H145   1.083       .  S
C141        C142   1.418   1_554  A
C142        C729   1.408       .  A
C142        C735   1.520       .  S
C143        C438   1.520       .  S
C143        F147   1.385       .  S
C143        F149   1.383       .  S
C143        F444   1.382       .  S
C146        F150   1.383       .  S
C146        F151   1.383       .  S
C146        F152   1.385       .  S
F148        C735   1.382       .  S
C153        C154   1.400       .  A
C153        C158   1.407       .  A
C153        H160   1.083       .  S
C154        C451   1.415       .  A
C155        C156   1.408       .  A
C155        C746   1.415   1_554  A
C155        C162   1.519       .  S
C156        C749   1.409   1_554  A
C156        H161   1.082       .  S
C157        C158   1.428       .  A
C157        C452   1.409       .  A
C158        C159   1.523       .  S
C159        F163   1.385       .  S
C159        F164   1.383       .  S
C159        F165   1.382       .  S
C162        F166   1.384       .  S
C162        F167   1.382       .  S
C162        F168   1.385       .  S
C169        C170   1.396       .  A
C169        C174   1.403       .  A
C169        H176   1.083       .  S
C170        C171   1.413       .  A
C171        C172   1.405       .  A
C171        C178   1.516       .  S
C172        C173   1.401       .  A
C172        H177   1.083       .  S
C173        C174   1.418       .  A
C174        C175   1.513       .  S
C175        F179   1.385       .  S
C175        F180   1.381       .  S
C175        F181   1.382       .  S
C178        F182   1.382       .  S
C178        F183   1.382       .  S
C178        F184   1.384       .  S
C185        C186   1.403       .  A
C185        C190   1.400       .  A
C185        H192   1.082       .  S
C186        C187   1.423       .  A
C187        C188   1.413       .  A
C187        C194   1.518       .  S
C188        C189   1.403       .  A
C188        H193   1.083       .  S
C189        C190   1.415       .  A
C190        C191   1.515       .  S
C191        F195   1.385       .  S
C191        F196   1.382       .  S
C191        F197   1.382       .  S
C194        F198   1.383       .  S
C194        F199   1.383       .  S
C194        F200   1.385       .  S
C201        C202   1.401       .  A
C201        C206   1.412       .  A
C201        H208   1.083       .  S
C202        C203   1.413       .  A
C203        C204   1.403       .  A
C203        C210   1.519       .  S
C204        C205   1.407       .  A
C204        H209   1.082       .  S
C205        C206   1.425       .  A
C206        C207   1.519       .  S
C207        F211   1.385       .  S
C207        F212   1.383       .  S
C207        F213   1.383       .  S
C210        F214   1.381       .  S
C210        F215   1.382       .  S
C210        F216   1.385       .  S
C217        C218   1.401       .  A
C217        C222   1.405       .  A
C217        H224   1.083       .  S
C218        C219   1.414       .  A
C219        C220   1.404       .  A
C219        C226   1.517       .  S
C220        C221   1.401       .  A
C220        H225   1.083       .  S
C221        C222   1.413       .  A
C222        C223   1.517       .  S
C223        F227   1.385       .  S
C223        F228   1.381       .  S
C223        F229   1.383       .  S
C226        F230   1.382       .  S
C226        F231   1.383       .  S
C226        F232   1.385       .  S
C233        C234   1.400       .  A
C233        C238   1.401       .  A
C233        H240   1.081       .  S
C234        C235   1.425       .  A
C235        C236   1.407       .  A
C235        C242   1.522       .  S
C236        C237   1.404       .  A
C236        H241   1.082       .  S
C237        C238   1.427       .  A
C238        C239   1.522       .  S
C239        F243   1.385       .  S
C239        F244   1.374       .  S
C239        F245   1.378       .  S
C242        F246   1.382       .  S
C242        F247   1.383       .  S
C242        F248   1.385       .  S
C249        C250   1.403       .  A
C249        C254   1.408       .  A
C249        H256   1.083       .  S
C250        C251   1.417       .  A
C251        C252   1.406       .  A
C251        C258   1.520       .  S
C252        C253   1.405       .  A
C252        H257   1.083       .  S
C253        C254   1.421       .  A
C254        C255   1.519       .  S
C255        F259   1.385       .  S
C255        F260   1.383       .  S
C255        F261   1.383       .  S
C258        F262   1.383       .  S
C258        F263   1.382       .  S
C258        F264   1.385       .  S
C265        C266   1.401       .  A
C265        C270   1.413       .  A
C265        H272   1.083       .  S
C266        C267   1.409       .  A
C267        C268   1.403       .  A
C267        C274   1.520       .  S
C268        C269   1.411       .  A
C268        H273   1.082       .  S
C269        C270   1.425       .  A
C270        C271   1.518       .  S
C271        F275   1.385   1_554  S
C271        F276   1.383       .  S
C271        F277   1.384       .  S
C274        F278   1.383       .  S
C274        F279   1.383       .  S
C274        F280   1.385       .  S
C281        C282   1.405       .  A
C281        C286   1.410       .  A
C281        H288   1.084       .  S
C282        C283   1.418       .  A
C283        C284   1.407       .  A
C283        C290   1.520       .  S
C284        C285   1.407       .  A
C284        H289   1.084       .  S
C285        C286   1.421       .  A
C286        C287   1.519       .  S
C287        F291   1.385       .  S
C287        F292   1.381       .  S
C287        F293   1.383       .  S
C290        F295   1.383       .  S
C290        F296   1.385       .  S
C290        F886   1.383       .  S
F294        C586   1.383       .  S
O297        C300   1.266       .  A
O297       Cd302   2.476       .  S
C298        O307   1.263   1_565  A
C298        O303   1.263       .  A
O299        C305   1.264       .  A
O299       Cd302   2.477       .  S
C300        O308   1.266   1_545  A
C300        C376   1.471       .  S
C301        O306   1.263       .  A
C301        O304   1.263       .  A
C301        C562   1.473       .  S
Cd302       O309   2.470       .  S
Cd302       O308   2.478   1_545  S
Cd302       O307   2.486       .  S
Cd302       O303   2.488   1_545  S
Cd302       O306   2.490   1_545  S
Cd302       O304   2.464   1_545  S
C305        O309   1.265       .  A
C305        C578   1.485       .  S
O310        C313   1.278       .  A
O310       Cd315   2.465       .  S
C311        O320   1.270       .  A
C311        O316   1.275       .  A
C311        C565   1.497       .  S
O312        C318   1.277       .  A
O312       Cd315   2.423       .  S
C313        O321   1.266       .  A
C313        C514   1.466       .  S
C314        O319   1.273       .  A
C314        O317   1.270       .  A
C314        C546   1.479       .  S
Cd315       O322   2.395       .  S
Cd315       O321   2.375       .  S
Cd315       O320   2.392       .  S
Cd315       O316   2.477       .  S
Cd315       O319   2.450       .  S
Cd315       O317   2.410       .  S
C318        O322   1.266       .  A
C318        C530   1.488       .  S
O323        C326   1.264       .  A
O323       Cd328   2.479       .  S
C324        O333   1.265       .  A
C324        O329   1.264       .  A
C324        C350   1.469       .  S
O325        C331   1.264       .  A
O325       Cd328   2.490   1_455  S
C326        O334   1.264       .  A
C326        C352   1.469       .  S
C327        O332   1.264       .  A
C327        O330   1.265       .  A
C327        C549   1.486       .  S
Cd328       O335   2.444   1_655  S
Cd328       O334   2.481       .  S
Cd328       O333   2.489       .  S
Cd328       O329   2.466       .  S
Cd328       O332   2.482       .  S
Cd328       O330   2.453       .  S
C331        O335   1.265       .  A
C331        C501   1.493       .  S
O336        C339   1.273       .  A
O336       Cd341   2.458       .  S
C337        O346   1.263       .  A
C337        O342   1.275       .  A
C337        C469   1.473       .  S
O338        C344   1.272       .  A
O338       Cd341   2.468       .  S
C339        O347   1.268       .  A
C339        C485   1.478       .  S
C340        O345   1.277       .  A
C340        O343   1.263       .  A
C340        C533   1.491       .  S
Cd341       O348   2.425       .  S
Cd341       O347   2.436       .  S
Cd341       O346   2.397       .  S
Cd341       O342   2.493       .  S
Cd341       O345   2.465       .  S
Cd341       O343   2.386       .  S
C344        O348   1.267       .  A
C344        C498   1.475       .  S
O349        C352   1.266       .  A
C350        O359   1.263       .  A
C350        O355   1.265       .  A
O351        C357   1.264       .  A
O351       Cd354   2.474   1_455  S
C352        O360   1.265       .  A
C353        O358   1.263       .  A
C353        O356   1.265       .  A
C353        C434   1.492       .  S
Cd354       O645   2.476       .  S
Cd354       O361   2.473   1_655  S
Cd354       O656   2.474       .  S
Cd354       O359   2.467       .  S
Cd354       O355   2.493       .  S
Cd354       O654   2.477       .  S
Cd354       O652   2.464       .  S
C357        O361   1.263       .  A
C357        C450   1.481       .  S
O362        C365   1.274       .  A
O362       Cd367   2.480       .  S
C363        O372   1.268       .  A
C363        O368   1.272       .  A
C363        C581   1.490       .  S
O364        C666   1.275       .  A
O364       Cd663   2.470       .  S
C365        O373   1.264       .  A
C365        C517   1.465       .  S
C366        O371   1.272       .  A
C366        O369   1.268       .  A
C366        C437   1.484       .  S
Cd367       O374   2.401       .  S
Cd367       O373   2.379       .  S
Cd367       O372   2.409       .  S
Cd367       O368   2.483       .  S
Cd367       O371   2.477       .  S
Cd367       O369   2.412       .  S
C370        O374   1.264       .  A
C370        C418   1.488       .  S
O375        C378   1.267       .  A
O375       Cd380   2.475       .  S
C376        O385   1.264       .  A
C376        O381   1.264       .  A
O377        C383   1.264       .  A
O377       Cd380   2.503   1_565  S
C378        O386   1.266   1_545  A
C378        C594   1.470   1_545  S
C379        O384   1.265       .  A
C379        O382   1.263       .  A
C379        C402   1.479       .  S
Cd380       O387   2.428   1_545  S
Cd380       O386   2.473   1_545  S
Cd380       O385   2.484       .  S
Cd380       O381   2.485       .  S
Cd380       O384   2.496       .  S
Cd380       O382   2.436       .  S
C383        O387   1.264       .  A
C383        C482   1.488       .  S
O388        C391   1.277       .  A
O388       Cd393   2.468       .  S
C389        O398   1.267       .  A
C389        O394   1.277       .  A
C389        C466   1.464       .  S
O390        C396   1.277       .  A
O390       Cd393   2.460       .  S
C391        O399   1.267       .  A
C391        C405   1.489       .  S
C392        O693   1.278       .  A
C392        O395   1.266       .  A
C392        C421   1.488       .  S
Cd393       O400   2.395       .  S
Cd393       O399   2.382       .  S
Cd393       O398   2.367       .  S
Cd393       O394   2.457       .  S
Cd393       O693   2.454       .  S
Cd393       O395   2.393       .  S
C396        O400   1.267       .  A
C396        C453   1.495       .  S
C401        C402   1.399       .  A
C401        C406   1.403       .  A
C401        H408   1.083       .  S
C402        C403   1.416       .  A
C403        C404   1.411       .  A
C403        C410   1.517       .  S
C404        C405   1.407       .  A
C404        H409   1.083       .  S
C405        C406   1.427       .  A
C406        C703   1.524       .  S
C407        F411   1.385       .  S
C407        F412   1.383       .  S
C407        F413   1.384       .  S
C410        F414   1.383       .  S
C410        F415   1.383       .  S
C410        F416   1.385       .  S
C417        C714   1.402       .  A
C417        C422   1.407       .  A
C417        H424   1.083       .  S
C418        C419   1.424       .  A
C419        C420   1.405       .  A
C419        C426   1.520       .  S
C420        H425   1.083       .  S
C421        C716   1.401       .  A
C421        C422   1.425       .  A
C422        C423   1.521       .  S
C423        F427   1.385       .  S
C423        F428   1.383       .  S
C423        F429   1.383       .  S
C426        F430   1.383       .  S
C426        F431   1.382       .  S
C426        F432   1.385       .  S
C433        C730   1.407       .  A
C433        C734   1.408       .  A
C433        H440   1.083       .  S
C434        C435   1.423       .  A
C435        C436   1.408       .  A
C435        C442   1.520       .  S
C436        C437   1.404       .  A
C436        H441   1.083       .  S
C437        C438   1.418       .  A
C439        C734   1.520       .  S
C439        F443   1.385       .  S
C439        F740   1.382       .  S
C439        F445   1.383       .  S
C442        F446   1.383       .  S
C442        F447   1.383       .  S
C442        F448   1.385       .  S
C449        C450   1.400       .  A
C449        C454   1.407       .  A
C449        H456   1.083       .  S
C450        C747   1.415       .  A
C451        C452   1.408       .  A
C451        C458   1.519       .  S
C452        H457   1.082       .  S
C453        C748   1.409       .  A
C453        C454   1.428       .  A
C454        C455   1.523       .  S
C455        F459   1.385       .  S
C455        F460   1.383       .  S
C455        F461   1.382       .  S
C458        F462   1.384       .  S
C458        F463   1.382       .  S
C458        F464   1.385       .  S
C465        C466   1.396       .  A
C465        C470   1.403       .  A
C465        H472   1.083       .  S
C466        C467   1.413       .  A
C467        C468   1.405       .  A
C467        C474   1.516       .  S
C468        C469   1.401       .  A
C468        H473   1.083       .  S
C469        C470   1.418       .  A
C470        C471   1.513       .  S
C471        F475   1.385       .  S
C471        F476   1.381       .  S
C471        F477   1.382       .  S
C474        F478   1.382       .  S
C474        F479   1.382       .  S
C474        F480   1.384       .  S
C481        C482   1.403       .  A
C481        C486   1.400       .  A
C481        H488   1.082       .  S
C482        C483   1.423       .  A
C483        C484   1.413       .  A
C483        C490   1.518       .  S
C484        C485   1.403       .  A
C484        H489   1.083       .  S
C485        C486   1.415       .  A
C486        C487   1.515       .  S
C487        F491   1.385       .  S
C487        F492   1.382       .  S
C487        F493   1.382       .  S
C490        F494   1.383       .  S
C490        F495   1.383       .  S
C490        F496   1.385       .  S
C497        C498   1.401       .  A
C497        C502   1.412       .  A
C497        H504   1.083       .  S
C498        C499   1.413       .  A
C499        C500   1.403       .  A
C499        C506   1.519       .  S
C500        C501   1.407       .  A
C500        H505   1.082       .  S
C501        C502   1.425       .  A
C502        C503   1.519       .  S
C503        F507   1.385       .  S
C503        F508   1.383       .  S
C503        F509   1.383       .  S
C506        F510   1.381       .  S
C506        F511   1.382       .  S
C506        F512   1.385       .  S
C513        C514   1.401       .  A
C513        C518   1.405       .  A
C513        H520   1.083       .  S
C514        C515   1.414       .  A
C515        C516   1.404       .  A
C515        C522   1.517       .  S
C516        C517   1.401       .  A
C516        H521   1.083       .  S
C517        C518   1.413       .  A
C518        C519   1.517       .  S
C519        F523   1.385       .  S
C519        F524   1.381       .  S
C519        F525   1.383       .  S
C522        F526   1.382       .  S
C522        F527   1.383       .  S
C522        F528   1.385       .  S
C529        C530   1.400       .  A
C529        C534   1.401       .  A
C529        H536   1.081       .  S
C530        C531   1.425       .  A
C531        C532   1.407       .  A
C531        C538   1.522       .  S
C532        C533   1.404       .  A
C532        H537   1.082       .  S
C533        C534   1.427       .  A
C534        C535   1.522       .  S
C535        F539   1.385       .  S
C535        F540   1.374       .  S
C535        F541   1.378       .  S
C538        F542   1.382       .  S
C538        F543   1.383       .  S
C538        F544   1.385       .  S
C545        C546   1.403       .  A
C545        C550   1.408       .  A
C545        H552   1.083       .  S
C546        C547   1.417       .  A
C547        C548   1.406       .  A
C547        C554   1.520       .  S
C548        C549   1.405       .  A
C548        H553   1.083       .  S
C549        C550   1.421       .  A
C550        C551   1.519       .  S
C551        F555   1.385       .  S
C551        F556   1.383       .  S
C551        F557   1.383       .  S
C554        F558   1.383       .  S
C554        F559   1.382       .  S
C554        F560   1.385       .  S
C561        C562   1.401       .  A
C561        C566   1.413       .  A
C561        H568   1.083       .  S
C562        C563   1.409       .  A
C563        C564   1.403       .  A
C563        C570   1.520       .  S
C564        C565   1.411       .  A
C564        H569   1.082       .  S
C565        C566   1.425       .  A
C566        C567   1.518       .  S
C567        F571   1.385       .  S
C567        F572   1.383       .  S
C567        F573   1.384       .  S
C570        F574   1.383       .  S
C570        F575   1.383       .  S
C570        F576   1.385       .  S
C577        C578   1.405       .  A
C577        C582   1.410       .  A
C577        H584   1.084       .  S
C578        C579   1.418       .  A
C579        C580   1.407       .  A
C579        C586   1.520       .  S
C580        C581   1.407       .  A
C580        H585   1.084       .  S
C581        C582   1.421       .  A
C582        C583   1.519       .  S
C583        F587   1.385       .  S
C583        F588   1.381       .  S
C583        F589   1.383       .  S
C586        F591   1.383       .  S
C586        F592   1.385       .  S
F590        C882   1.383       .  S
O593        C596   1.266       .  A
O593       Cd598   2.476       .  S
C594        O603   1.263   1_565  A
C594        O599   1.263       .  A
O595        C601   1.264       .  A
O595       Cd598   2.477       .  S
C596        O604   1.266   1_545  A
C596        C672   1.471       .  S
C597        O602   1.263       .  A
C597        O600   1.263       .  A
C597        C858   1.473       .  S
Cd598       O605   2.470       .  S
Cd598       O604   2.478   1_545  S
Cd598       O603   2.486       .  S
Cd598       O599   2.488   1_545  S
Cd598       O602   2.490   1_545  S
Cd598       O600   2.464   1_545  S
C601        O605   1.265       .  A
C601        C874   1.485       .  S
O606        C609   1.278       .  A
O606       Cd611   2.465       .  S
C607        O616   1.270       .  A
C607        O612   1.275       .  A
C607        C861   1.497       .  S
O608        C614   1.277       .  A
O608       Cd611   2.423       .  S
C609        O617   1.266       .  A
C609        C810   1.466       .  S
C610        O615   1.273       .  A
C610        O613   1.270       .  A
C610        C842   1.479       .  S
Cd611       O618   2.395       .  S
Cd611       O617   2.375       .  S
Cd611       O616   2.392       .  S
Cd611       O612   2.477       .  S
Cd611       O615   2.450       .  S
Cd611       O613   2.410       .  S
C614        O618   1.266       .  A
C614        C826   1.488       .  S
O619        C622   1.264       .  A
O619       Cd624   2.479       .  S
C620        O629   1.265       .  A
C620        O625   1.264       .  A
C620        C646   1.469       .  S
O621        C627   1.264       .  A
O621       Cd624   2.490   1_455  S
C622        O630   1.264       .  A
C622        C648   1.469       .  S
C623        O628   1.264       .  A
C623        O626   1.265       .  A
C623        C845   1.486       .  S
Cd624       O631   2.444   1_655  S
Cd624       O630   2.481       .  S
Cd624       O629   2.489       .  S
Cd624       O625   2.466       .  S
Cd624       O628   2.482       .  S
Cd624       O626   2.453       .  S
C627        O631   1.265       .  A
C627        C797   1.493       .  S
O632        C635   1.273       .  A
O632       Cd637   2.458       .  S
C633        O642   1.263       .  A
C633        O638   1.275       .  A
C633        C765   1.473       .  S
O634        C640   1.272       .  A
O634       Cd637   2.468       .  S
C635        O643   1.268       .  A
C635        C781   1.478       .  S
C636        O641   1.277       .  A
C636        O639   1.263       .  A
C636        C829   1.491       .  S
Cd637       O644   2.425       .  S
Cd637       O643   2.436       .  S
Cd637       O642   2.397       .  S
Cd637       O638   2.493       .  S
Cd637       O641   2.465       .  S
Cd637       O639   2.386       .  S
C640        O644   1.267       .  A
C640        C794   1.475       .  S
O645        C648   1.266       .  A
C646        O655   1.263       .  A
C646        O651   1.265       .  A
O647        C653   1.264       .  A
O647       Cd650   2.474   1_455  S
C648        O656   1.265       .  A
C649        O654   1.263       .  A
C649        O652   1.265       .  A
C649        C730   1.492       .  S
Cd650       O657   2.473   1_656  S
Cd650       O655   2.467       .  S
Cd650       O651   2.493       .  S
C653        O657   1.263   1_556  A
C653        C746   1.481       .  S
O658        C661   1.274       .  A
O658       Cd663   2.480       .  S
C659        O668   1.268       .  A
C659        O664   1.272       .  A
C659        C877   1.490       .  S
C661        O669   1.264       .  A
C661        C813   1.465       .  S
C662        O667   1.272       .  A
C662        O665   1.268       .  A
C662        C733   1.484       .  S
Cd663       O670   2.401       .  S
Cd663       O669   2.379       .  S
Cd663       O668   2.409       .  S
Cd663       O664   2.483       .  S
Cd663       O667   2.477       .  S
Cd663       O665   2.412       .  S
C666        O670   1.264       .  A
C666        C714   1.488       .  S
O671        C674   1.267       .  A
O671       Cd676   2.475       .  S
C672        O681   1.264       .  A
C672        O677   1.264       .  A
O673        C679   1.264       .  A
O673       Cd676   2.503   1_565  S
C674        O682   1.266   1_545  A
C675        O680   1.265       .  A
C675        O678   1.263       .  A
C675        C698   1.479       .  S
Cd676       O683   2.428   1_545  S
Cd676       O682   2.473   1_545  S
Cd676       O681   2.484       .  S
Cd676       O677   2.485       .  S
Cd676       O680   2.496       .  S
Cd676       O678   2.436       .  S
C679        O683   1.264       .  A
C679        C778   1.488       .  S
O684        C687   1.277       .  A
O684       Cd689   2.468       .  S
C685        O694   1.267       .  A
C685        O690   1.277       .  A
C685        C762   1.464       .  S
O686        C692   1.277       .  A
O686       Cd689   2.460       .  S
C687        O695   1.267       .  A
C687        C701   1.489       .  S
C688        O691   1.266       .  A
C688        C717   1.488       .  S
Cd689       O696   2.395       .  S
Cd689       O695   2.382       .  S
Cd689       O694   2.367       .  S
Cd689       O690   2.457       .  S
Cd689       O691   2.393       .  S
C692        O696   1.267       .  A
C692        C749   1.495       .  S
C697        C698   1.399       .  A
C697        C702   1.403       .  A
C697        H704   1.083       .  S
C698        C699   1.416       .  A
C699        C700   1.411       .  A
C699        C706   1.517       .  S
C700        C701   1.407       .  A
C700        H705   1.083       .  S
C701        C702   1.427       .  A
C703        F707   1.385       .  S
C703        F708   1.383       .  S
C703        F709   1.384       .  S
C706        F710   1.383       .  S
C706        F711   1.383       .  S
C706        F712   1.385       .  S
C713        C718   1.407       .  A
C713        H720   1.083       .  S
C714        C715   1.424       .  A
C715        C716   1.405       .  A
C715        C722   1.520       .  S
C716        H721   1.083       .  S
C717        C718   1.425       .  A
C718        C719   1.521       .  S
C719        F723   1.385       .  S
C719        F724   1.383       .  S
C719        F725   1.383       .  S
C722        F726   1.383       .  S
C722        F727   1.382       .  S
C722        F728   1.385       .  S
C729        H736   1.083       .  S
C730        C731   1.423       .  A
C731        C732   1.408       .  A
C731        C738   1.520       .  S
C732        C733   1.404       .  A
C732        H737   1.083       .  S
C733        C734   1.418       .  A
C735        F739   1.385       .  S
C735        F741   1.383       .  S
C738        F742   1.383       .  S
C738        F743   1.383       .  S
C738        F744   1.385       .  S
C745        C746   1.400       .  A
C745        C750   1.407       .  A
C745        H752   1.083       .  S
C747        C748   1.408       .  A
C747        C754   1.519       .  S
C748        H753   1.082       .  S
C749        C750   1.428       .  A
C750        C751   1.523       .  S
C751        F755   1.385       .  S
C751        F756   1.383       .  S
C751        F757   1.382       .  S
C754        F758   1.384       .  S
C754        F759   1.382       .  S
C754        F760   1.385       .  S
C761        C762   1.396       .  A
C761        C766   1.403       .  A
C761        H768   1.083       .  S
C762        C763   1.413       .  A
C763        C764   1.405       .  A
C763        C770   1.516       .  S
C764        C765   1.401       .  A
C764        H769   1.083       .  S
C765        C766   1.418       .  A
C766        C767   1.513       .  S
C767        F771   1.385       .  S
C767        F772   1.381       .  S
C767        F773   1.382       .  S
C770        F774   1.382       .  S
C770        F775   1.382       .  S
C770        F776   1.384       .  S
C777        C778   1.403       .  A
C777        C782   1.400       .  A
C777        H784   1.082       .  S
C778        C779   1.423       .  A
C779        C780   1.413       .  A
C779        C786   1.518       .  S
C780        C781   1.403       .  A
C780        H785   1.083       .  S
C781        C782   1.415       .  A
C782        C783   1.515       .  S
C783        F787   1.385       .  S
C783        F788   1.382       .  S
C783        F789   1.382       .  S
C786        F790   1.383       .  S
C786        F791   1.383       .  S
C786        F792   1.385       .  S
C793        C794   1.401       .  A
C793        C798   1.412       .  A
C793        H800   1.083       .  S
C794        C795   1.413       .  A
C795        C796   1.403       .  A
C795        C802   1.519       .  S
C796        C797   1.407       .  A
C796        H801   1.082       .  S
C797        C798   1.425       .  A
C798        C799   1.519       .  S
C799        F803   1.385       .  S
C799        F804   1.383       .  S
C799        F805   1.383       .  S
C802        F806   1.381       .  S
C802        F807   1.382       .  S
C802        F808   1.385       .  S
C809        C810   1.401       .  A
C809        C814   1.405       .  A
C809        H816   1.083       .  S
C810        C811   1.414       .  A
C811        C812   1.404       .  A
C811        C818   1.517       .  S
C812        C813   1.401       .  A
C812        H817   1.083       .  S
C813        C814   1.413       .  A
C814        C815   1.517       .  S
C815        F819   1.385       .  S
C815        F820   1.381       .  S
C815        F821   1.383       .  S
C818        F822   1.382       .  S
C818        F823   1.383       .  S
C818        F824   1.385       .  S
C825        C826   1.400       .  A
C825        C830   1.401       .  A
C825        H832   1.081       .  S
C826        C827   1.425       .  A
C827        C828   1.407       .  A
C827        C834   1.522       .  S
C828        C829   1.404       .  A
C828        H833   1.082       .  S
C829        C830   1.427       .  A
C830        C831   1.522       .  S
C831        F835   1.385       .  S
C831        F836   1.374       .  S
C831        F837   1.378       .  S
C834        F838   1.382       .  S
C834        F839   1.383       .  S
C834        F840   1.385       .  S
C841        C842   1.403       .  A
C841        C846   1.408       .  A
C841        H848   1.083       .  S
C842        C843   1.417       .  A
C843        C844   1.406       .  A
C843        C850   1.520       .  S
C844        C845   1.405       .  A
C844        H849   1.083       .  S
C845        C846   1.421       .  A
C846        C847   1.519       .  S
C847        F851   1.385       .  S
C847        F852   1.383       .  S
C847        F853   1.383       .  S
C850        F854   1.383       .  S
C850        F855   1.382       .  S
C850        F856   1.385       .  S
C857        C858   1.401       .  A
C857        C862   1.413       .  A
C857        H864   1.083       .  S
C858        C859   1.409       .  A
C859        C860   1.403       .  A
C859        C866   1.520       .  S
C860        C861   1.411       .  A
C860        H865   1.082       .  S
C861        C862   1.425       .  A
C862        C863   1.518       .  S
C863        F867   1.385       .  S
C863        F868   1.383       .  S
C863        F869   1.384       .  S
C866        F870   1.383       .  S
C866        F871   1.383       .  S
C866        F872   1.385       .  S
C873        C874   1.405       .  A
C873        C878   1.410       .  A
C873        H880   1.084       .  S
C874        C875   1.418       .  A
C875        C876   1.407       .  A
C875        C882   1.520       .  S
C876        C877   1.407       .  A
C876        H881   1.084       .  S
C877        C878   1.421       .  A
C878        C879   1.519       .  S
C879        F883   1.385       .  S
C879        F884   1.381       .  S
C879        F885   1.383       .  S
C882        F887   1.383       .  S
C882        F888   1.385       .  S
