geometry optimzed in LAMMPS
_audit_creation_date              2020-11-30 
_audit_creation_method            'lammps2cif' 
_symmetry_space_group_name_H-M    'P1' 
_symmetry_Int_Tables_number       1 
_symmetry_cell_setting            triclinic 
loop_ 
_symmetry_equiv_pos_as_xyz 
  x,y,z 
_cell_length_a                    28.674496826541425 
_cell_length_b                    28.387050385957725 
_cell_length_c                    27.954991520807095 
_cell_angle_alpha                 91.41500714571266 
_cell_angle_beta                  90.55874747330417 
_cell_angle_gamma                 89.10211933414146 
loop_ 
_atom_site_label 
_atom_site_type_symbol 
_atom_site_fract_x 
_atom_site_fract_y 
_atom_site_fract_z 
_atom_site_charge 
C1          C  0.71169377  0.76888452  0.76693388     0.03710
C2          C  0.73457402  0.79150675  0.73003336    -0.12440
C3          C  0.77803928  0.77474047  0.71405417     0.01210
C4          C  0.79889258  0.73516951  0.73529858    -0.10960
C5          C  0.77625248  0.71247914  0.77237318     0.03710
C6          C  0.73263928  0.72953376  0.78816885    -0.10380
H7          H  0.71774997  0.82101709  0.71253635     0.09300
H8          H  0.83172366  0.72106634  0.72183113     0.06830
H9          H  0.71434919  0.71127036  0.81579313     0.06680
C10         C  0.31244042  0.72571394  0.25423196     0.03710
C11         C  0.27801854  0.69159934  0.24887019    -0.12440
C12         C  0.24760691  0.69250051  0.20943659     0.01210
C13         C  0.25170522  0.72752235  0.17534433    -0.10960
C14         C  0.28637300  0.76152172  0.18082734     0.03710
C15         C  0.31673213  0.76056209  0.22021258    -0.10380
H16         H  0.27407845  0.66526550  0.27595024     0.09300
H17         H  0.22727592  0.72911975  0.14554674     0.06830
H18         H  0.34278877  0.78761723  0.22506465     0.06680
C19         C  0.73311097  0.71799453  0.21070959     0.03710
C20         C  0.77015609  0.74491125  0.19443305    -0.12440
C21         C  0.77568602  0.79145354  0.21138784     0.01210
C22         C  0.74417445  0.81104297  0.24465585    -0.10960
C23         C  0.70722199  0.78431912  0.26095396     0.03710
C24         C  0.70167786  0.73782506  0.24388376    -0.10380
H25         H  0.79526864  0.72930402  0.16973819     0.09300
H26         H  0.74943286  0.84637052  0.25917564     0.06830
H27         H  0.67374321  0.71669708  0.25742042     0.06680
C28         C  0.32311780  0.29171482  0.24084179     0.03710
C29         C  0.29287363  0.33049115  0.24717117    -0.12440
C30         C  0.26232083  0.33225527  0.28589290     0.01210
C31         C  0.26209912  0.29559096  0.31826111    -0.10960
C32         C  0.29210966  0.25685078  0.31172634     0.03710
C33         C  0.32280150  0.25483148  0.27312265    -0.10380
H34         H  0.29174971  0.35812426  0.22104777     0.09300
H35         H  0.23704195  0.29611739  0.34712053     0.06830
H36         H  0.34522316  0.22411794  0.26739437     0.06680
C37         C  0.72837709  0.29777739  0.28590993     0.03710
C38         C  0.76728017  0.27296150  0.30338561    -0.12440
C39         C  0.77544274  0.22622350  0.28821516     0.01210
C40         C  0.74480456  0.20425070  0.25577779    -0.10960
C41         C  0.70598632  0.22907897  0.23855132     0.03710
C42         C  0.69765791  0.27579157  0.25369553    -0.10380
H43         H  0.79187088  0.29039952  0.32735778     0.09300
H44         H  0.75228021  0.16876664  0.24238087     0.06830
H45         H  0.66840190  0.29554754  0.23898220     0.06680
C46         C  0.77359682  0.23272717  0.79672048     0.03710
C47         C  0.79520299  0.27161151  0.77599232    -0.12440
C48         C  0.77494195  0.29333113  0.73579348     0.01210
C49         C  0.73293311  0.27605283  0.71655877    -0.10960
C50         C  0.71104348  0.23768210  0.73694115     0.03710
C51         C  0.73149151  0.21609856  0.77695703    -0.10380
H52         H  0.82700528  0.28551257  0.79169051     0.09300
H53         H  0.71662646  0.29326978  0.68633743     0.06830
H54         H  0.71404571  0.18709023  0.79340576     0.06680
C55         C  0.22971621  0.73227931  0.70692108     0.03710
C56         C  0.26844182  0.70487471  0.72071787    -0.12440
C57         C  0.28851532  0.71141884  0.76633936     0.01210
C58         C  0.26963205  0.74529546  0.79818453    -0.10960
C59         C  0.23085046  0.77272569  0.78455912     0.03710
C60         C  0.21091889  0.76617401  0.73894229    -0.10380
H61         H  0.28351741  0.67925589  0.69568671     0.09300
H62         H  0.28597750  0.75134973  0.83290226     0.06830
H63         H  0.18170470  0.78822511  0.72793738     0.06680
Zr64       Zr  0.96628593  0.05794038  0.09042715     2.17510
O65         O  0.88542634  0.03373013  0.08131374    -0.50750
O66         O  0.95335841  0.09574762  0.17053076    -0.73950
O67         O  0.95119024  0.98596219  0.13694839    -0.80740
O68         O  0.94747220  0.13626089  0.98238944    -0.82480
O69         O  0.02109913  0.95069838  0.15405442    -0.78110
O70         O  0.91191867  0.11703272  0.05090368    -0.89740
O71         O  0.02323460  0.11859471  0.20168879    -0.75700
O72         O  0.03463530  0.04885548  0.13909422    -0.85190
O73         O  0.00776100  0.12990452  0.08892215    -0.84880
O74         O  0.01131600  0.99296342  0.05462055    -0.71640
O75         O  0.98867211  0.06516261  0.00788614    -0.83780
Zr76       Zr  0.14133519  0.07062911  0.02195443     2.26420
Zr77       Zr  0.07955029  0.98553626  0.10464165     2.06270
Zr78       Zr  0.02794927  0.13837867  0.00660853     2.10050
Zr79       Zr  0.07643601  0.12021852  0.13713004     1.78760
O80         O  0.02336805  0.16438516  0.92429303    -0.92580
O81         O  0.12203002  0.09787515  0.20729511    -0.40390
O82         O  0.09534272  0.13261499  0.05629076    -0.77020
O83         O  0.12314446  0.05727870  0.10445969    -0.95710
O84         O  0.10258473  0.99716899  0.02428479    -0.89010
O85         O  0.07498319  0.07737180  0.97048823    -0.91850
C86         C  0.97965287  0.11168008  0.20504625     1.01900
C87         C  0.91236200  0.13801878  0.00995082     1.14830
C88         C  0.97671920  0.95457795  0.15823570     1.05610
O89         O  0.11443293  0.97166669  0.18290804    -0.94010
O90         O  0.15920123  0.95761466  0.09642822    -0.89750
O91         O  0.19586517  0.01381095  0.05503052    -0.82900
C92         C  0.19550481  0.97496828  0.07759502     1.12250
O93         O  0.96105528  0.98333930  0.93861018    -0.95980
Zr94       Zr  0.03690406  0.00318144  0.97335930     1.88940
O95         O  0.16003865  0.03085387  0.94671216    -0.72630
O96         O  0.07575213  0.90273569  0.07982716    -0.51890
O97         O  0.02717464  0.91811446  0.97550243    -0.96570
O98         O  0.03031707  0.02079318  0.88843987    -0.53790
O99         O  0.11030560  0.97020943  0.94030015    -0.73150
C100        C  0.15022425  0.98878927  0.93275525     0.99200
O101        O  0.22139646  0.09819830  0.01933981    -0.61970
O102        O  0.99706363  0.21399360  0.03604900    -0.56770
O103        O  0.16024328  0.15166467  0.99901649    -0.93450
O104        O  0.09079091  0.19059449  0.99082515    -0.91880
O105        O  0.05580765  0.20295845  0.15097865    -0.92230
O106        O  0.14492287  0.16892230  0.14907027    -0.91020
C107        C  0.13544289  0.18902028  0.99098320     1.18040
H108        H  0.98846526  0.15565791  0.10096452     0.33980
H109        H  0.15122546  0.05426187  0.12357833     0.44840
H110        H  0.08394636  0.08562029  0.93860840     0.38360
H111        H  0.99333179  0.96452256  0.05551689     0.34840
H112        H  0.11594486  0.12333120  0.23139052     0.26630
H113        H  0.08725961  0.88533037  0.10795777     0.32570
H114        H  0.03938898  0.90595544  0.94449576     0.38480
H115        H  0.05788424  0.20784753  0.18612483     0.32940
H116        H  0.02421625  0.23502233  0.03883832     0.31810
H117        H  0.99729716  0.18763365  0.92379622     0.33490
H118        H  0.02847472  0.98962777  0.87188535     0.32460
H119        H  0.16870911  0.15439788  0.12764902     0.36460
H120        H  0.23351312  0.09625249  0.05253935     0.29190
H121        H  0.87338348  0.03221276  0.11431172     0.33430
H122        H  0.96624538  0.95504641  0.91781293     0.36280
H123        H  0.97856952  0.22610338  0.00889055     0.28890
H124        H  0.23895215  0.07363268  0.00094385     0.41760
H125        H  0.09152492  0.98475467  0.20613624     0.31810
H126        H  0.10594925  0.07021233  0.21980754     0.39430
H127        H  0.06124335  0.03246870  0.87931559     0.31280
H128        H  0.04211738  0.89554103  0.07772704     0.31340
H129        H  0.88710661  0.00054117  0.06960910     0.31610
C130        C  0.19010287  0.28677863  0.92493435     0.03710
C131        C  0.18459919  0.24129893  0.94256129    -0.12440
C132        C  0.15756819  0.23471227  0.98314696     0.01210
C133        C  0.13919196  0.27429260  0.00813626    -0.10960
C134        C  0.14276059  0.31978064  0.99018811     0.03710
C135        C  0.16885545  0.32589603  0.94848645    -0.10380
H136        H  0.19690710  0.21087162  0.92182606     0.09300
H137        H  0.11560918  0.26883595  0.03757693     0.06830
H138        H  0.16871666  0.35999663  0.93185867     0.06680
C139        C  0.89886811  0.15797100  0.30200803     0.03710
C140        C  0.91609924  0.14512885  0.25678086    -0.12440
C141        C  0.95993586  0.12343201  0.25256720     0.01210
C142        C  0.98665072  0.11520694  0.29437230    -0.10960
C143        C  0.96813630  0.12498139  0.33996173     0.03710
C144        C  0.92408979  0.14686002  0.34347372    -0.10380
H145        H  0.89590063  0.15305992  0.22489567     0.09300
H146        H  0.02047297  0.09784987  0.29151589     0.06830
H147        H  0.90886682  0.15377126  0.37834949     0.06680
C148        C  0.28565106  0.87865712  0.10091828     0.03710
C149        C  0.24353792  0.90443417  0.10216916    -0.12440
C150        C  0.24006273  0.94831318  0.08035342     0.01210
C151        C  0.27942515  0.96609680  0.05833327    -0.10960
C152        C  0.32149297  0.94058826  0.05674820     0.03710
C153        C  0.32459942  0.89632327  0.07766276    -0.10380
H154        H  0.21359135  0.89008465  0.11980300     0.09300
H155        H  0.27721356  0.99974458  0.04088684     0.06830
H156        H  0.35712974  0.87636419  0.07675138     0.06680
Zr157      Zr  0.86954969  0.57430396  0.48420698     2.17510
O158        O  0.79102391  0.60295758  0.50222058    -0.50750
O159        O  0.84525326  0.52856097  0.55360513    -0.73950
O160        O  0.81246658  0.53820104  0.42987325    -0.80740
O161        O  0.92353919  0.69001616  0.53065935    -0.82480
O162        O  0.85046729  0.48389970  0.38301275    -0.78110
O163        O  0.85513034  0.65914566  0.50376062    -0.89740
O164        O  0.90133995  0.47929201  0.58189695    -0.75700
O165        O  0.90578953  0.49797540  0.47818173    -0.85190
O166        O  0.93102714  0.57366064  0.54229304    -0.84880
O167        O  0.89540064  0.56586983  0.40191636    -0.71640
O168        O  0.92258822  0.63299623  0.46050203    -0.83780
Zr169      Zr  0.04823354  0.55453230  0.43154801     2.26420
Zr170      Zr  0.93437079  0.49025686  0.39811649     2.06270
Zr171      Zr  0.98372171  0.63286384  0.51853846     2.10050
Zr172      Zr  0.96891438  0.49838821  0.53448361     1.78760
O173        O  0.00893125  0.71437181  0.51794215    -0.92580
O174        O  0.96227044  0.41293449  0.52961406    -0.40390
O175        O  0.02251254  0.55842893  0.51304401    -0.77020
O176        O  0.99829681  0.49062320  0.45427242    -0.95710
O177        O  0.98486427  0.55134982  0.37605346    -0.89010
O178        O  0.00929432  0.62917922  0.43727037    -0.91850
C179        C  0.85968771  0.49627557  0.58232044     1.01900
C180        C  0.88032679  0.69343046  0.52006307     1.14830
C181        C  0.81317672  0.50582152  0.39692813     1.05610
O182        O  0.92960550  0.40784167  0.41928335    -0.94010
O183        O  0.99978777  0.46167496  0.34906060    -0.89750
O184        O  0.06869132  0.48946125  0.37859701    -0.82900
C185        C  0.04465425  0.46416407  0.34916447     1.12250
O186        O  0.88778616  0.68746984  0.37616960    -0.95980
Zr187      Zr  0.94779207  0.62570435  0.37962836     1.88940
O188        O  0.07185694  0.58321335  0.35397627    -0.72630
O189        O  0.91669463  0.46716149  0.31531339    -0.51890
O190        O  0.90131608  0.61105596  0.30734106    -0.96570
O191        O  0.98097467  0.70117875  0.35997540    -0.53790
O192        O  0.00481980  0.60793442  0.31788091    -0.73150
C193        C  0.04802776  0.59558537  0.31707042     0.99200
O194        O  0.12220394  0.52045774  0.45830532    -0.61970
O195        O  0.98488820  0.63859659  0.60567664    -0.56770
O196        O  0.09804607  0.61964113  0.46011996    -0.93450
O197        O  0.06657538  0.63153415  0.53254778    -0.91880
O198        O  0.99054236  0.52190379  0.61598269    -0.92230
O199        O  0.03909983  0.45677076  0.56088535    -0.91020
C200        C  0.09638355  0.64128157  0.50102624     1.18040
H201        H  0.91954897  0.57986287  0.57424036     0.33980
H202        H  0.01537103  0.46109374  0.45138567     0.44840
H203        H  0.02872482  0.65554862  0.43029775     0.38360
H204        H  0.87039469  0.56863290  0.37885566     0.34840
H205        H  0.96180875  0.40293927  0.56329563     0.26630
H206        H  0.89706536  0.43886414  0.31696708     0.32570
H207        H  0.91675713  0.62904233  0.28222642     0.38480
H208        H  0.98124599  0.49525760  0.63581229     0.32940
H209        H  0.01108868  0.65976541  0.61371504     0.31810
H210        H  0.01865751  0.72187646  0.55129774     0.33490
H211        H  0.97055778  0.70675042  0.32668750     0.32460
H212        H  0.06357861  0.46648768  0.53859170     0.36460
H213        H  0.12626401  0.53270484  0.49153252     0.29190
H214        H  0.77358008  0.57494861  0.51174413     0.33430
H215        H  0.88552518  0.69646936  0.34222439     0.36280
H216        H  0.95658908  0.65724283  0.61425124     0.28890
H217        H  0.11590628  0.48654486  0.46195629     0.41760
H218        H  0.89581080  0.40233151  0.42278350     0.31810
H219        H  0.93012543  0.40743473  0.51774786     0.39430
H220        H  0.01494879  0.69513363  0.35725116     0.31280
H221        H  0.89569175  0.49223987  0.30308636     0.31340
H222        H  0.77718310  0.61174279  0.47102918     0.31610
C223        C  0.72201600  0.43462656  0.33048461     0.03710
C224        C  0.76528159  0.45117349  0.34613299    -0.12440
C225        C  0.76835729  0.49329828  0.37313804     0.01210
C226        C  0.72743263  0.52049358  0.38113410    -0.10960
C227        C  0.68356411  0.50309964  0.36717819     0.03710
C228        C  0.68125251  0.46026449  0.34116869    -0.10380
H229        H  0.79615616  0.42936912  0.34006634     0.09300
H230        H  0.72896834  0.55226772  0.40337284     0.06830
H231        H  0.64759186  0.44487924  0.33316650     0.06680
C232        C  0.13430249  0.60980041  0.21720790     0.03710
C233        C  0.11379562  0.61296656  0.26250645    -0.12440
C234        C  0.07044304  0.59269170  0.26997629     0.01210
C235        C  0.04803584  0.56875044  0.23198504    -0.10960
C236        C  0.06924001  0.56363837  0.18699577     0.03710
C237        C  0.11266955  0.58432086  0.17974872    -0.10380
H238        H  0.13084290  0.63235800  0.29146975     0.09300
H239        H  0.01466574  0.55255274  0.23803884     0.06830
H240        H  0.12891414  0.58166627  0.14491133     0.06680
C241        C  0.83539917  0.79723488  0.58678434     0.03710
C242        C  0.83457711  0.75209708  0.56570233    -0.12440
C243        C  0.86164751  0.74140505  0.52583224     0.01210
C244        C  0.88657617  0.77734851  0.50411673    -0.10960
C245        C  0.88838084  0.82307113  0.52457621     0.03710
C246        C  0.86206050  0.83285579  0.56639871    -0.10380
H247        H  0.81769408  0.72376196  0.58395485     0.09300
H248        H  0.90902920  0.76786437  0.47429477     0.06830
H249        H  0.86430241  0.86693393  0.58451431     0.06680
Zr250      Zr  0.01834019  0.87165259  0.42858827     2.17510
O251        O  0.00673511  0.79205613  0.39684624    -0.50750
O252        O  0.94990998  0.84369730  0.47179240    -0.73950
O253        O  0.07131949  0.81409272  0.46609628    -0.80740
O254        O  0.94154381  0.92164278  0.34094563    -0.82480
O255        O  0.11532791  0.85258976  0.52215525    -0.78110
O256        O  0.99665486  0.86533807  0.34224665    -0.89740
O257        O  0.92365981  0.89883088  0.52552117    -0.75700
O258        O  0.02463922  0.90662815  0.50715342    -0.85190
O259        O  0.96088206  0.93353366  0.43352921    -0.84880
O260        O  0.09768874  0.89933791  0.43676187    -0.71640
O261        O  0.03910942  0.92613189  0.36831354    -0.83780
Zr262      Zr  0.06609378  0.05326674  0.45558960     2.26420
Zr263      Zr  0.10181062  0.93722079  0.51470187     2.06270
Zr264      Zr  0.98206876  0.98830633  0.37374579     2.10050
Zr265      Zr  0.96838643  0.96905012  0.51118530     1.78760
O266        O  0.00503844  0.00793336  0.29304204    -0.92580
O267        O  0.97445238  0.95677310  0.59699295    -0.40390
O268        O  0.98753248  0.02445779  0.45152001    -0.77020
O269        O  0.04555598  0.00053987  0.51879554    -0.95710
O270        O  0.12105771  0.98968109  0.45357642    -0.89010
O271        O  0.06049886  0.01643506  0.37780286    -0.91850
C272        C  0.92248927  0.85756165  0.50588006     1.01900
C273        C  0.96427928  0.88846354  0.32020730     1.14830
C274        C  0.10206466  0.81475653  0.50004146     1.05610
O275        O  0.08496127  0.93090852  0.59946611    -0.94010
O276        O  0.14703433  0.00396143  0.54672902    -0.89750
O277        O  0.11723752  0.07426669  0.52197123    -0.82900
C278        C  0.14617738  0.04946049  0.54639807     1.12250
O279        O  0.12275306  0.89359082  0.31326159    -0.95980
Zr280      Zr  0.11705899  0.95406794  0.37661299     1.88940
O281        O  0.14139522  0.07786073  0.42467460    -0.72630
O282        O  0.18420740  0.91918649  0.52876213    -0.51890
O283        O  0.18940535  0.90887822  0.38666581    -0.96570
O284        O  0.13049818  0.99056129  0.29987359    -0.53790
O285        O  0.17693092  0.01143630  0.39473818    -0.73150
C286        C  0.17744173  0.05454119  0.40956444     0.99200
O287        O  0.04008643  0.12677766  0.49448525    -0.61970
O288        O  0.90666975  0.01375617  0.34136082    -0.56770
O289        O  0.03001977  0.10485971  0.39551370    -0.93450
O290        O  0.96290024  0.06780194  0.39816261    -0.91880
O291        O  0.88833225  0.99212726  0.49201779    -0.92230
O292        O  0.94201820  0.03724895  0.55868407    -0.91020
C293        C  0.98762777  0.10004062  0.38139884     1.18040
H294        H  0.92957692  0.92222803  0.42843065     0.33980
H295        H  0.04815107  0.01682712  0.54943945     0.44840
H296        H  0.06672054  0.03827452  0.35282701     0.38360
H297        H  0.12036526  0.87403904  0.43355913     0.34840
H298        H  0.94178699  0.95488970  0.60788346     0.26630
H299        H  0.18536614  0.90077757  0.55839525     0.32570
H300        H  0.21252958  0.92503602  0.36702622     0.38480
H301        H  0.86950942  0.97966480  0.51824514     0.32940
H302        H  0.90264624  0.99678610  0.31026947     0.31810
H303        H  0.97562883  0.01274602  0.27488681     0.33490
H304        H  0.16231429  0.98005323  0.29063367     0.32460
H305        H  0.96095057  0.06356245  0.54737136     0.36460
H306        H  0.00726090  0.13107064  0.48395515     0.29190
H307        H  0.00103610  0.77260521  0.42507087     0.33430
H308        H  0.15471992  0.89536367  0.30043699     0.36280
H309        H  0.88341592  0.99981118  0.36257446     0.28890
H310        H  0.03768594  0.11941464  0.52880481     0.41760
H311        H  0.07822095  0.89716709  0.60366125     0.31810
H312        H  0.98694342  0.92423763  0.59978733     0.39430
H313        H  0.13379593  0.02463753  0.30723772     0.31280
H314        H  0.19323554  0.89649542  0.50288629     0.31340
H315        H  0.03767108  0.78141971  0.38495768     0.31610
C316        C  0.16800429  0.72505213  0.57464604     0.03710
C317        C  0.15372553  0.68255838  0.55311124    -0.12440
C318        C  0.12518663  0.68266513  0.51204952     0.01210
C319        C  0.11132947  0.72603682  0.49247356    -0.10960
C320        C  0.12354437  0.76912438  0.51515423     0.03710
C321        C  0.15314613  0.76799898  0.55562995    -0.10380
H322        H  0.16194461  0.64954283  0.57023738     0.09300
H323        H  0.08704131  0.72601717  0.46252110     0.06830
H324        H  0.16269502  0.80048984  0.57414792     0.06680
C325        C  0.27374418  0.14169011  0.39187769     0.03710
C326        C  0.22962074  0.12114778  0.39061198    -0.12440
C327        C  0.22318329  0.07746484  0.41147994     0.01210
C328        C  0.26123168  0.05483641  0.43390194    -0.10960
C329        C  0.30506163  0.07642762  0.43691564     0.03710
C330        C  0.31100243  0.12004785  0.41582390    -0.10380
H331        H  0.20086193  0.13827108  0.37209371     0.09300
H332        H  0.25632952  0.02102206  0.45020531     0.06830
H333        H  0.34493543  0.13641947  0.41671629     0.06680
C334        C  0.89469665  0.86394433  0.20912167     0.03710
C335        C  0.91473672  0.85735959  0.25440580    -0.12440
C336        C  0.95463018  0.88163868  0.26855906     0.01210
C337        C  0.97556791  0.91166137  0.23582022    -0.10960
C338        C  0.95475827  0.92050983  0.19075909     0.03710
C339        C  0.91390159  0.89628945  0.17765571    -0.10380
H340        H  0.89747834  0.83548931  0.27992841     0.09300
H341        H  0.00645725  0.93066494  0.24674481     0.06830
H342        H  0.89740360  0.90231055  0.14326074     0.06680
Zr343      Zr  0.58033888  0.48685356  0.86881445     2.17510
O344        O  0.60462192  0.49500253  0.78621490    -0.50750
O345        O  0.54298562  0.56186341  0.85291907    -0.73950
O346        O  0.53167835  0.44323908  0.81210477    -0.80740
O347        O  0.69250267  0.53396284  0.92175505    -0.82480
O348        O  0.47834528  0.39798092  0.84767597    -0.78110
O349        O  0.66202421  0.50513788  0.85175946    -0.89740
O350        O  0.47899558  0.56840488  0.89877110    -0.75700
O351        O  0.50613479  0.48291238  0.90603638    -0.85190
O352        O  0.58187701  0.54200629  0.93461663    -0.84880
O353        O  0.57159436  0.40567770  0.88919523    -0.71640
O354        O  0.64154328  0.45989229  0.91935491    -0.83780
Zr355      Zr  0.56683087  0.42732611  0.04806932     2.26420
Zr356      Zr  0.49905500  0.40399252  0.93129853     2.06270
Zr357      Zr  0.64232196  0.51392073  0.98565976     2.10050
Zr358      Zr  0.50841004  0.53563502  0.97318379     1.78760
O359        O  0.72296316  0.50429645  0.01176887    -0.92580
O360        O  0.42372513  0.53422154  0.97893909    -0.40390
O361        O  0.56963493  0.50842830  0.02518163    -0.77020
O362        O  0.50186114  0.45605966  0.99999026    -0.95710
O363        O  0.56192677  0.37662776  0.97936564    -0.89010
O364        O  0.63955832  0.43264475  0.00724528    -0.91850
C365        C  0.50090001  0.57586421  0.86002551     1.01900
C366        C  0.69520496  0.52314862  0.87724600     1.14830
C367        C  0.49732797  0.41470812  0.81071326     1.05610
O368        O  0.41578222  0.42214240  0.93078046    -0.94010
O369        O  0.46893298  0.35806782  0.99463455    -0.89750
O370        O  0.50241599  0.37655698  0.06680883    -0.82900
C371        C  0.47402402  0.35328949  0.03983022     1.12250
O372        O  0.69157416  0.37836871  0.87588443    -0.95980
Zr373      Zr  0.63394300  0.37981575  0.93960798     1.88940
O374        O  0.59820250  0.34847658  0.06503966    -0.72630
O375        O  0.48868033  0.32208267  0.90604718    -0.51890
O376        O  0.61676389  0.31186120  0.88761896    -0.96570
O377        O  0.71049335  0.35461772  0.96848045    -0.53790
O378        O  0.62182783  0.31696897  0.99363964    -0.73150
C379        C  0.61144933  0.31365820  0.03774983     0.99200
O380        O  0.53528704  0.44925915  0.12630251    -0.61970
O381        O  0.65312448  0.59854974  0.99696238    -0.56770
O382        O  0.63041774  0.45636044  0.10044188    -0.93450
O383        O  0.63055611  0.52779345  0.06975908    -0.91880
O384        O  0.53050468  0.61758653  0.98533058    -0.92230
O385        O  0.47725476  0.57036657  0.04690090    -0.91020
C386        C  0.64610337  0.49845195  0.09967782     1.18040
H387        H  0.58843438  0.57377323  0.92537577     0.33980
H388        H  0.47329974  0.45385204  0.01778992     0.44840
H389        H  0.66601612  0.42388556  0.02691953     0.38360
H390        H  0.57123639  0.38508818  0.86121157     0.34840
H391        H  0.41342530  0.56724105  0.97410507     0.26630
H392        H  0.45691708  0.32073231  0.89190159     0.32570
H393        H  0.63656265  0.28595312  0.90009970     0.38480
H394        H  0.50575680  0.63591787  0.96885875     0.32940
H395        H  0.68136506  0.60156478  0.01739162     0.31810
H396        H  0.73710926  0.53565659  0.00879712     0.33490
H397        H  0.71477490  0.32208568  0.95547624     0.32460
H398        H  0.48164258  0.54544735  0.07077963     0.36460
H399        H  0.54655281  0.48157233  0.13298473     0.29190
H400        H  0.57588535  0.50273538  0.76797634     0.33430
H401        H  0.69983776  0.34476058  0.86986526     0.36280
H402        H  0.66259041  0.61009828  0.96543084     0.28890
H403        H  0.50136725  0.45367555  0.12068066     0.41760
H404        H  0.41016193  0.43939354  0.90086355     0.31810
H405        H  0.41334973  0.51720338  0.94950303     0.39430
H406        H  0.70682429  0.35061659  0.00330782     0.31280
H407        H  0.51000326  0.31669921  0.87873712     0.31340
H408        H  0.61358699  0.46278601  0.77496903     0.31610
C409        C  0.48343072  0.41173416  0.67692150     0.03710
C410        C  0.50337598  0.41424482  0.72281217    -0.12440
C411        C  0.47883636  0.40120767  0.76302660     0.01210
C412        C  0.43575804  0.37934503  0.75687558    -0.10960
C413        C  0.41637284  0.37325648  0.71096364     0.03710
C414        C  0.43960230  0.39035886  0.67084972    -0.10380
H415        H  0.53729914  0.42983861  0.72794856     0.09300
H416        H  0.41651703  0.36842326  0.78780936     0.06830
H417        H  0.42315867  0.38827475  0.63582059     0.06680
C418        C  0.63529068  0.21087003  0.11788741     0.03710
C419        C  0.61988147  0.17295199  0.08907811    -0.12440
C420        C  0.60090523  0.18134563  0.04342763     0.01210
C421        C  0.59877414  0.22790117  0.02732373    -0.10960
C422        C  0.61351736  0.26579832  0.05654024     0.03710
C423        C  0.63134294  0.25713884  0.10200916    -0.10380
H424        H  0.62236895  0.13742219  0.10229115     0.09300
H425        H  0.58410589  0.23518918  0.99236258     0.06830
H426        H  0.64356911  0.28623239  0.12443637     0.06680
C427        C  0.79654272  0.58541389  0.82968570     0.03710
C428        C  0.75120498  0.56796558  0.83089414    -0.12440
C429        C  0.74167841  0.52864475  0.85763995     0.01210
C430        C  0.77809901  0.50461515  0.88087118    -0.10960
C431        C  0.82362134  0.52200870  0.88176613     0.03710
C432        C  0.83287765  0.56268550  0.85520219    -0.10380
H433        H  0.72252151  0.58786771  0.81523161     0.09300
H434        H  0.76944662  0.47517325  0.90296427     0.06830
H435        H  0.86720985  0.57808227  0.85649202     0.06680
Zr436      Zr  0.87069073  0.42601837  0.01545097     2.17510
O437        O  0.79153304  0.39967765  0.00020576    -0.50750
O438        O  0.84431078  0.47004363  0.94493867    -0.73950
O439        O  0.81503622  0.46699853  0.06852754    -0.80740
O440        O  0.92420303  0.30350325  0.99038847    -0.82480
O441        O  0.85411335  0.52261061  0.11168518    -0.78110
O442        O  0.85426307  0.34132511  0.99886153    -0.89740
O443        O  0.90012195  0.51681332  0.91569126    -0.75700
O444        O  0.90708371  0.50117927  0.01751771    -0.85190
O445        O  0.93061418  0.42272791  0.95658351    -0.84880
O446        O  0.89890378  0.43624743  0.09691621    -0.71640
O447        O  0.92460300  0.36659763  0.04034395    -0.83780
Zr448      Zr  0.05129248  0.44463398  0.06566401     2.26420
Zr449      Zr  0.93705872  0.51103264  0.09704610     2.06270
Zr450      Zr  0.98382354  0.36237530  0.98204965     2.10050
Zr451      Zr  0.96937376  0.49666613  0.96135605     1.78760
O452        O  0.01028337  0.28515749  0.95242424    -0.92580
O453        O  0.96435270  0.58245350  0.96198394    -0.40390
O454        O  0.02332973  0.43565129  0.98458046    -0.77020
O455        O  0.00006888  0.50831827  0.04101743    -0.95710
O456        O  0.98857604  0.44954256  0.12060155    -0.89010
O457        O  0.01391609  0.37010124  0.06219506    -0.91850
C458        C  0.85845015  0.50135349  0.91585233     1.01900
C459        C  0.87959923  0.30349653  0.99350669     1.14830
C460        C  0.81651229  0.50142506  0.09926693     1.05610
O461        O  0.93289169  0.59252059  0.07203345    -0.94010
O462        O  0.00080827  0.53953027  0.14703613    -0.89750
O463        O  0.07038420  0.50973476  0.12057874    -0.82900
C464        C  0.04551392  0.53623869  0.14862990     1.12250
O465        O  0.89233086  0.31650155  0.12626356    -0.95740
Zr466      Zr  0.95284905  0.37545542  0.11972374     1.88940
O467        O  0.07630008  0.41498998  0.14321573    -0.72630
O468        O  0.92070889  0.53749838  0.17902245    -0.51890
O469        O  0.90943299  0.39116158  0.19318181    -0.96570
O470        O  0.98806659  0.29865632  0.13643639    -0.53790
O471        O  0.00990255  0.39441600  0.18047842    -0.73150
C472        C  0.05292073  0.40564224  0.18075758     0.99200
O473        O  0.12207487  0.48246330  0.03949630    -0.61970
O474        O  0.97922152  0.36610776  0.89499656    -0.56770
O475        O  0.10813735  0.38622424  0.03323088    -0.93450
O476        O  0.06541824  0.34142703  0.98105461    -0.91880
O477        O  0.98744138  0.47076618  0.87983364    -0.92230
O478        O  0.03940532  0.53325416  0.93184064    -0.91020
C479        C  0.10373020  0.35244604  0.00187272     1.18040
H480        H  0.91724536  0.41654850  0.92526795     0.33980
H481        H  0.01664065  0.53769545  0.04276101     0.44840
H482        H  0.03528198  0.34466718  0.06966696     0.38360
H483        H  0.87445204  0.43543812  0.12029093     0.34840
H484        H  0.96304144  0.59081311  0.92780531     0.26630
H485        H  0.90179907  0.56683295  0.17640975     0.32570
H486        H  0.92542409  0.37195502  0.21766748     0.38480
H487        H  0.97703820  0.49716708  0.85962520     0.32940
H488        H  0.00926324  0.35264872  0.88350603     0.31810
H489        H  0.98721627  0.27527807  0.92775007     0.33490
H490        H  0.97755492  0.29141688  0.16904008     0.32460
H491        H  0.06304195  0.52846023  0.95737816     0.36460
H492        H  0.12517054  0.47284104  0.00537120     0.29190
H493        H  0.77389757  0.42797757  0.98996225     0.33430
H494        H  0.89364441  0.30581447  0.15969779     0.36280
H495        H  0.95565475  0.34254537  0.88517443     0.28890
H496        H  0.11392358  0.51645770  0.03863774     0.41760
H497        H  0.89920537  0.59892616  0.06681925     0.31810
H498        H  0.93268912  0.59015022  0.97393860     0.39430
H499        H  0.02184151  0.30441159  0.14055275     0.31280
H500        H  0.89928003  0.51401036  0.19190670     0.31340
H501        H  0.77884789  0.39257616  0.03201442     0.31610
C502        C  0.72788664  0.58124295  0.16161363     0.03710
C503        C  0.68640013  0.55741334  0.15138442    -0.12440
C504        C  0.68743462  0.51322131  0.12746242     0.01210
C505        C  0.73067927  0.49275959  0.11485971    -0.10960
C506        C  0.77227339  0.51790105  0.12191655     0.03710
C507        C  0.77053587  0.56148006  0.14693062    -0.10380
H508        H  0.65318174  0.57477836  0.15867483     0.09300
H509        H  0.73125550  0.45985194  0.09434394     0.06830
H510        H  0.80205215  0.58156308  0.15257987     0.06680
C511        C  0.14341423  0.40653958  0.27936309     0.03710
C512        C  0.12247411  0.39977230  0.23444976    -0.12440
C513        C  0.07535054  0.41101157  0.22789498     0.01210
C514        C  0.04937633  0.42969053  0.26649725    -0.10960
C515        C  0.07059502  0.43829107  0.31120169     0.03710
C516        C  0.11790661  0.42614734  0.31755690    -0.10380
H517        H  0.14250549  0.38464342  0.20498963     0.09300
H518        H  0.01319055  0.43997213  0.26092721     0.06830
H519        H  0.13477577  0.43167080  0.35207410     0.06680
C520        C  0.82742716  0.20354089  0.92774877     0.03710
C521        C  0.85020552  0.16503727  0.95030116    -0.12440
C522        C  0.87467657  0.17185465  0.99450222     0.01210
C523        C  0.87750889  0.21830854  0.01333455    -0.10960
C524        C  0.85791645  0.25685392  0.98879739     0.03710
C525        C  0.83021581  0.24864731  0.94847476    -0.10380
H526        H  0.85164990  0.13092811  0.93209415     0.09300
H527        H  0.90062725  0.22535116  0.04349338     0.06830
H528        H  0.81635830  0.27856906  0.92912240     0.06680
Zr529      Zr  0.43494641  0.95658095  0.93771811     2.17510
O530        O  0.45627063  0.87800358  0.96443291    -0.50750
O531        O  0.35503043  0.94067003  0.90810303    -0.73950
O532        O  0.38607807  0.93589896  0.00435845    -0.80740
O533        O  0.53250766  0.93660947  0.85696537    -0.82480
O534        O  0.36384221  0.00664763  0.03753142    -0.78110
O535        O  0.46375917  0.90322567  0.87360657    -0.89740
O536        O  0.32352091  0.01099645  0.88665926    -0.75700
O537        O  0.38470571  0.02340814  0.94698933    -0.85190
O538        O  0.43992927  0.99771859  0.86434083    -0.84880
O539        O  0.46484273  0.00165319  0.00596905    -0.71640
O540        O  0.51537931  0.97992342  0.93345620    -0.83780
Zr541      Zr  0.49364864  0.13369110  0.93010631     2.26420
Zr542      Zr  0.41358224  0.06895629  0.01294825     2.06270
Zr543      Zr  0.52030928  0.02128249  0.86089763     2.10050
Zr544      Zr  0.38704380  0.06347469  0.87431330     1.78760
O545        O  0.60507172  0.02676144  0.85857020    -0.92580
O546        O  0.31870451  0.11360015  0.88956284    -0.40390
O547        O  0.46578542  0.08488303  0.86641495    -0.77020
O548        O  0.41353282  0.11232785  0.94004095    -0.95710
O549        O  0.49129324  0.09439128  0.00412151    -0.89010
O550        O  0.54879229  0.07006843  0.92490743    -0.91850
C551        C  0.32012648  0.96746617  0.89643626     1.01900
C552        C  0.50342688  0.90317119  0.85247714     1.14830
C553        C  0.36045905  0.96185618  0.03202377     1.05610
O554        O  0.33676691  0.10005745  0.03428514    -0.94010
O555        O  0.41439845  0.14991835  0.04178289    -0.89750
O556        O  0.45496845  0.18787321  0.98561727    -0.82900
C557        C  0.43132881  0.18719630  0.02434338     1.12250
O558        O  0.57796496  0.95305302  0.01893583    -0.95980
Zr559      Zr  0.54349671  0.02914435  0.99829227     1.88940
O560        O  0.56539246  0.15361793  0.97170425    -0.72630
O561        O  0.43706537  0.06101488  0.09641200    -0.51890
O562        O  0.53888201  0.01987457  0.08454003    -0.96570
O563        O  0.62707636  0.02350190  0.98238471    -0.53790
O564        O  0.57267299  0.10301216  0.03247060    -0.73150
C565        C  0.57909292  0.14335009  0.01400151     0.99200
O566        O  0.49991268  0.21488767  0.90500144    -0.61970
O567        O  0.54070709  0.99259722  0.78101355    -0.56770
O568        O  0.51268727  0.15483354  0.84770944    -0.93450
O569        O  0.51778258  0.08570893  0.80508340    -0.91880
O570        O  0.37083648  0.03364761  0.79353176    -0.92230
O571        O  0.37935602  0.12857919  0.81951689    -0.91020
C572        C  0.51726560  0.13098800  0.80816252     1.18040
H573        H  0.43130581  0.97826806  0.83692260     0.33980
H574        H  0.39345477  0.13988816  0.94265069     0.44840
H575        H  0.57949259  0.08200589  0.91922813     0.38360
H576        H  0.46303720  0.98298090  0.03429204     0.34840
H577        H  0.29550440  0.10357075  0.86504698     0.26630
H578        H  0.41422898  0.08074285  0.11454423     0.32570
H579        H  0.56872028  0.03218982  0.09739624     0.38480
H580        H  0.33673414  0.03806929  0.78930039     0.32940
H581        H  0.57152504  0.97670743  0.78415377     0.31810
H582        H  0.61096851  0.05107195  0.83464214     0.33490
H583        H  0.64207700  0.02218530  0.01438492     0.32460
H584        H  0.39765083  0.15425575  0.83478354     0.36460
H585        H  0.46746635  0.22733718  0.90410678     0.29190
H586        H  0.42681854  0.86023015  0.96370008     0.33430
H587        H  0.59741562  0.95875923  0.04789003     0.36280
H588        H  0.51882955  0.96684944  0.77381591     0.28890
H589        H  0.51502478  0.23185884  0.93219920     0.41760
H590        H  0.32674449  0.11889496  0.00657924     0.31810
H591        H  0.30607544  0.10244121  0.92004197     0.39430
H592        H  0.63592466  0.05469139  0.97065150     0.31280
H593        H  0.42943634  0.02827683  0.10446664     0.31340
H594        H  0.46407312  0.88219629  0.99884353     0.31610
C595        C  0.58032372  0.18987726  0.71185441     0.03710
C596        C  0.56249233  0.18270796  0.75742878    -0.12440
C597        C  0.52288075  0.15568006  0.76298150     0.01210
C598        C  0.49733901  0.14073667  0.72238442    -0.10960
C599        C  0.51466179  0.14648136  0.67606358     0.03710
C600        C  0.55697155  0.17096152  0.67107027    -0.10380
H601        H  0.58275893  0.19311405  0.78883805     0.09300
H602        H  0.46747978  0.11845389  0.72718691     0.06830
H603        H  0.57336872  0.17198569  0.63636618     0.06680
C604        C  0.40028243  0.27985724  0.11989064     0.03710
C605        C  0.42453383  0.31865398  0.10335864    -0.12440
C606        C  0.44809318  0.31470341  0.05994175     0.01210
C607        C  0.44807646  0.27208867  0.03399140    -0.10960
C608        C  0.42546217  0.23259015  0.05082333     0.03710
C609        C  0.40089326  0.23680628  0.09396730    -0.10380
H610        H  0.42433629  0.35174727  0.12356891     0.09300
H611        H  0.46757550  0.26952178  0.00098540     0.06830
H612        H  0.38283794  0.20679076  0.10768444     0.06680
C613        C  0.21755908  0.88918457  0.86760238     0.03710
C614        C  0.17999592  0.91631461  0.88614881    -0.12440
C615        C  0.18829013  0.96023222  0.90916964     0.01210
C616        C  0.23473939  0.97608376  0.91244191    -0.10960
C617        C  0.27234653  0.94850977  0.89478317     0.03710
C618        C  0.26342602  0.90489106  0.87295836    -0.10380
H619        H  0.14474468  0.90343900  0.88241314     0.09300
H620        H  0.24210873  0.00971308  0.92984659     0.06830
H621        H  0.29210224  0.88398660  0.85822598     0.06680
Zr622      Zr  0.58354623  0.52955489  0.62825173     2.17510
O623        O  0.62456605  0.54850889  0.70336092    -0.50750
O624        O  0.54420707  0.45940478  0.65144082    -0.73950
O625        O  0.52925513  0.56612685  0.68502408    -0.80740
O626        O  0.69503261  0.48546559  0.57353389    -0.82480
O627        O  0.47765535  0.61561149  0.64896318    -0.78110
O628        O  0.66042629  0.49324341  0.64612629    -0.89740
O629        O  0.48620000  0.44282632  0.59815819    -0.75700
O630        O  0.50838766  0.53386067  0.59121993    -0.85190
O631        O  0.58365453  0.47385858  0.56292626    -0.84880
O632        O  0.57174422  0.61017425  0.60688171    -0.71640
O633        O  0.64226941  0.55484209  0.57605090    -0.83780
Zr634      Zr  0.56270777  0.58781220  0.44841709     2.26420
Zr635      Zr  0.49804293  0.61249453  0.56550839     2.06270
Zr636      Zr  0.64143233  0.50046819  0.51011419     2.10050
Zr637      Zr  0.50920849  0.48045565  0.52477906     1.78760
O638        O  0.72145570  0.50290749  0.48259383    -0.92580
O639        O  0.42423735  0.48319867  0.52509492    -0.40390
O640        O  0.56770804  0.50661805  0.47122734    -0.77020
O641        O  0.49991561  0.55983793  0.49739654    -0.95710
O642        O  0.55901979  0.63907194  0.51681034    -0.89010
O643        O  0.63666730  0.58166801  0.48845088    -0.91850
C644        C  0.50625075  0.43870799  0.63911191     1.01900
C645        C  0.69586774  0.48439917  0.61912881     1.14830
C646        C  0.49478195  0.59571107  0.68588286     1.05610
O647        O  0.41486355  0.59633352  0.56483378    -0.94010
O648        O  0.46539211  0.65880940  0.50211009    -0.89750
O649        O  0.49626745  0.63818887  0.42963085    -0.82900
C650        C  0.46856603  0.66248361  0.45664639     1.12250
O651        O  0.69048027  0.63671767  0.62018781    -0.95980
Zr652      Zr  0.63232723  0.63493854  0.55585415     1.88940
O653        O  0.59149885  0.66633160  0.43077218    -0.72630
O654        O  0.48775640  0.69402300  0.59296441    -0.51890
O655        O  0.61489211  0.70365475  0.60708194    -0.96570
O656        O  0.70851649  0.65704744  0.52662098    -0.53790
O657        O  0.61868352  0.69741093  0.50120148    -0.73150
C658        C  0.60606386  0.70077579  0.45747055     0.99200
O659        O  0.52975104  0.56533204  0.37059528    -0.61970
O660        O  0.65044146  0.41503715  0.50291262    -0.56770
O661        O  0.62581880  0.55972737  0.39542893    -0.93450
O662        O  0.62935850  0.48806569  0.42569377    -0.91880
O663        O  0.53383539  0.39932961  0.50776046    -0.92230
O664        O  0.47321426  0.44803787  0.45219050    -0.91020
C665        C  0.64308330  0.51779271  0.39597073     1.18040
H666        H  0.59053504  0.44224942  0.57323722     0.33980
H667        H  0.47075441  0.56212149  0.47994200     0.44840
H668        H  0.66250068  0.58992594  0.46857650     0.38360
H669        H  0.57099808  0.63022889  0.63528177     0.34840
H670        H  0.41488737  0.44998141  0.52818105     0.26630
H671        H  0.45601283  0.69586469  0.60659134     0.32570
H672        H  0.63398462  0.72916424  0.59430889     0.38480
H673        H  0.50990019  0.37994501  0.52283535     0.32940
H674        H  0.67119509  0.40953862  0.47516559     0.31810
H675        H  0.73320385  0.46996753  0.48348014     0.33490
H676        H  0.71297282  0.68971569  0.53886943     0.32460
H677        H  0.47680450  0.47289284  0.42831800     0.36460
H678        H  0.54213632  0.53311893  0.36387259     0.29190
H679        H  0.60471604  0.57091218  0.72197210     0.33430
H680        H  0.69915652  0.67015809  0.62479525     0.36280
H681        H  0.66956046  0.40583361  0.53094087     0.28890
H682        H  0.49619015  0.56060017  0.37659999     0.41760
H683        H  0.40931312  0.57970784  0.59492230     0.31810
H684        H  0.41612721  0.49822756  0.55629733     0.39430
H685        H  0.70440601  0.66036099  0.49166318     0.31280
H686        H  0.50907025  0.69791489  0.62081096     0.31340
H687        H  0.65113532  0.56808777  0.69401365     0.31610
C688        C  0.59334631  0.83299964  0.45177921     0.03710
C689        C  0.61392030  0.84126156  0.40706534    -0.12440
C690        C  0.63077950  0.80299630  0.37871173     0.01210
C691        C  0.62639357  0.75680201  0.39416373    -0.10960
C692        C  0.60708112  0.74840055  0.43851109     0.03710
C693        C  0.59100784  0.78632998  0.46715956    -0.10380
H694        H  0.61676068  0.87685623  0.39440944     0.09300
H695        H  0.63979048  0.72745609  0.37250851     0.06830
H696        H  0.57551044  0.77894986  0.50132480     0.06680
C697        C  0.47694083  0.59906062  0.81956798     0.03710
C698        C  0.43368899  0.62301002  0.82360870    -0.12440
C699        C  0.41133788  0.64011996  0.78225678     0.01210
C700        C  0.43146057  0.63221179  0.73717724    -0.10960
C701        C  0.47396614  0.60751601  0.73289146     0.03710
C702        C  0.49672840  0.59256655  0.77420942    -0.10380
H703        H  0.41744845  0.62791488  0.85824528     0.09300
H704        H  0.41344295  0.64448812  0.70544551     0.06830
H705        H  0.52971893  0.57394181  0.77067697     0.06680
C706        C  0.79658642  0.41605186  0.67016715     0.03710
C707        C  0.83343134  0.43632135  0.64435984    -0.12440
C708        C  0.82492574  0.47688493  0.61651378     0.01210
C709        C  0.77979168  0.49655103  0.61669567    -0.10960
C710        C  0.74256414  0.47445868  0.63884993     0.03710
C711        C  0.75129425  0.43531081  0.66683643    -0.10380
H712        H  0.86762541  0.41957220  0.64442432     0.09300
H713        H  0.77195973  0.52678727  0.59488606     0.06830
H714        H  0.72226278  0.41740567  0.68259628     0.06680
Zr715      Zr  0.42575127  0.06122907  0.55290152     2.17510
O716        O  0.44508571  0.13808828  0.52239454    -0.50750
O717        O  0.34896148  0.08250476  0.58522654    -0.73950
O718        O  0.37247171  0.07894372  0.48681181    -0.80740
O719        O  0.52610662  0.07335633  0.63901467    -0.82480
O720        O  0.34766287  0.00817439  0.45715563    -0.78110
O721        O  0.46114102  0.11352382  0.61634570    -0.89740
O722        O  0.31371204  0.01277412  0.59781259    -0.75700
O723        O  0.37581557  0.99564601  0.54024480    -0.85190
O724        O  0.42265156  0.01961424  0.62538069    -0.84880
O725        O  0.45757716  0.01514460  0.48630535    -0.71640
O726        O  0.50442656  0.03384104  0.56493941    -0.83780
Zr727      Zr  0.48368164  0.88184787  0.56388682     2.26420
Zr728      Zr  0.40649070  0.94911926  0.47607518     2.06270
Zr729      Zr  0.50121070  0.99294730  0.63814900     2.10050
Zr730      Zr  0.37291194  0.95403143  0.61186738     1.78760
O731        O  0.57855033  0.99589874  0.67485707    -0.92580
O732        O  0.30372390  0.91045077  0.58743567    -0.40390
O733        O  0.45058634  0.92820771  0.62724963    -0.77020
O734        O  0.40370729  0.90499521  0.54847462    -0.95710
O735        O  0.48409860  0.92175124  0.49018285    -0.89010
O736        O  0.53577272  0.94555066  0.57557835    -0.91850
C737        C  0.31280384  0.05733676  0.59230964     1.01900
C738        C  0.50015564  0.11024535  0.63995812     1.14830
C739        C  0.34440948  0.05317937  0.46167957     1.05610
O740        O  0.33513429  0.91723449  0.44128148    -0.94010
O741        O  0.40817483  0.86721985  0.44898952    -0.89750
O742        O  0.44590127  0.82836086  0.50811239    -0.82900
C743        C  0.42377020  0.82945526  0.46810277     1.12250
O744        O  0.57214024  0.06114226  0.48789649    -0.95980
Zr745      Zr  0.53563286  0.98551537  0.50103378     1.88940
O746        O  0.55570278  0.86024546  0.52278171    -0.72630
O747        O  0.43409539  0.96388147  0.39579449    -0.51890
O748        O  0.53577120  0.00059068  0.41558241    -0.96570
O749        O  0.61858357  0.98411602  0.52180169    -0.53790
O750        O  0.56514778  0.91231143  0.46413742    -0.73150
C751        C  0.57073228  0.87113321  0.48140981     0.99200
O752        O  0.49075785  0.80049258  0.58913494    -0.61970
O753        O  0.46454188  0.02262567  0.71131741    -0.56770
O754        O  0.50434567  0.85844516  0.64556072    -0.93450
O755        O  0.51526049  0.92647646  0.68852296    -0.91880
O756        O  0.35477738  0.98132164  0.69294458    -0.92230
O757        O  0.35719282  0.88955257  0.66494309    -0.91020
C758        C  0.51335153  0.88148040  0.68470820     1.18040
H759        H  0.41042798  0.04053926  0.65011312     0.33980
H760        H  0.38370404  0.87810042  0.54449645     0.44840
H761        H  0.56636722  0.93435929  0.58508641     0.38360
H762        H  0.45700528  0.03400388  0.45800580     0.34840
H763        H  0.27915650  0.92147879  0.60990328     0.26630
H764        H  0.42406351  0.93610638  0.37643444     0.32570
H765        H  0.56596620  0.98748856  0.40409380     0.38480
H766        H  0.32033822  0.98442734  0.69338956     0.32940
H767        H  0.45649037  0.99445063  0.72947944     0.31810
H768        H  0.57713098  0.02268633  0.69818219     0.33490
H769        H  0.63479238  0.98584689  0.49079594     0.32460
H770        H  0.37633248  0.86283644  0.65220460     0.36460
H771        H  0.45857513  0.78830923  0.58866430     0.29190
H772        H  0.41545035  0.15645850  0.52326940     0.33430
H773        H  0.59400237  0.05586573  0.46103231     0.36280
H774        H  0.48983884  0.03811534  0.72956017     0.28890
H775        H  0.50685868  0.78339147  0.56262239     0.41760
H776        H  0.31565191  0.90998276  0.46912220     0.31810
H777        H  0.29429730  0.92388529  0.55639013     0.39430
H778        H  0.62555587  0.95172622  0.53237921     0.31280
H779        H  0.41404467  0.99008847  0.38439320     0.31340
H780        H  0.45120182  0.13229304  0.48793027     0.31610
C781        C  0.39169324  0.73509687  0.37510882     0.03710
C782        C  0.41667981  0.69624578  0.39267477    -0.12440
C783        C  0.44121545  0.70087428  0.43588812     0.01210
C784        C  0.44137001  0.74415538  0.46053076    -0.10960
C785        C  0.41805033  0.78369841  0.44256683     0.03710
C786        C  0.39261480  0.77888006  0.39964965    -0.10380
H787        H  0.41638422  0.66264859  0.37337933     0.09300
H788        H  0.46170115  0.74717220  0.49331164     0.06830
H789        H  0.37396678  0.80891004  0.38516879     0.06680
C790        C  0.21314544  0.14170473  0.61983872     0.03710
C791        C  0.17557314  0.11827979  0.59732652    -0.12440
C792        C  0.18340337  0.07464243  0.57319953     0.01210
C793        C  0.22872430  0.05553258  0.57194428    -0.10960
C794        C  0.26630700  0.07962235  0.59301133     0.03710
C795        C  0.25842899  0.12282389  0.61651485    -0.10380
H796        H  0.14067455  0.13335701  0.59924637     0.09300
H797        H  0.23512225  0.02222774  0.55309456     0.06830
H798        H  0.28729768  0.14083107  0.63395110     0.06680
C799        C  0.57953509  0.81986307  0.78067555     0.03710
C800        C  0.55738893  0.83980516  0.82128102    -0.12440
C801        C  0.51585666  0.86652176  0.81627966     0.01210
C802        C  0.49705846  0.87257895  0.77033233    -0.10960
C803        C  0.52125927  0.85635476  0.72952658     0.03710
C804        C  0.56120857  0.82811734  0.73490030    -0.10380
H805        H  0.57435733  0.83790175  0.85601435     0.09300
H806        H  0.46764685  0.89666871  0.76588346     0.06830
H807        H  0.58087030  0.81706026  0.70350711     0.06680
C808        C  0.23805479  0.28835407  0.78788268     0.03710
C809        C  0.27637695  0.31421585  0.77317191    -0.12440
C810        C  0.29251795  0.30934604  0.72606610     0.01210
C811        C  0.27011088  0.27876075  0.69358611    -0.10960
C812        C  0.23173530  0.25279391  0.70802521     0.03710
C813        C  0.21573088  0.25758130  0.75521279    -0.10380
H814        H  0.29431246  0.33718865  0.79862533     0.09300
H815        H  0.28354403  0.27389440  0.65763160     0.06830
H816        H  0.18695375  0.23646740  0.76682859     0.06680
C817        C  0.20694316  0.18395521  0.64881840    -0.12690
C818        C  0.21323170  0.21709485  0.67586818    -0.14250
C819        C  0.33435441  0.33293555  0.71253473    -0.12690
C820        C  0.37128906  0.35176727  0.70704703    -0.14250
C821        C  0.20963464  0.29143967  0.87790252    -0.12690
C822        C  0.22315873  0.29144227  0.83708753    -0.14250
C823        C  0.19249942  0.72500557  0.61998488    -0.12690
C824        C  0.21030343  0.72717269  0.65929515    -0.14250
C825        C  0.21542787  0.81113004  0.81544913    -0.12690
C826        C  0.21067823  0.84596864  0.84061989    -0.14250
C827        C  0.36698246  0.66467022  0.78444569    -0.12690
C828        C  0.33045860  0.68566732  0.77889753    -0.14250
C829        C  0.66594440  0.22240525  0.71900767    -0.12690
C830        C  0.62688233  0.20882347  0.70998114    -0.14250
C831        C  0.80805665  0.20141800  0.87937192    -0.12690
C832        C  0.79254605  0.21235775  0.84040269    -0.14250
C833        C  0.79443944  0.33535225  0.71540410    -0.12690
C834        C  0.80172396  0.37203572  0.69540369    -0.14250
C835        C  0.67846776  0.20983447  0.20008815    -0.12690
C836        C  0.65706119  0.20382012  0.16341348    -0.14250
C837        C  0.81795576  0.20242495  0.30103856    -0.12690
C838        C  0.85468298  0.18193897  0.30507315    -0.14250
C839        C  0.72180167  0.34665582  0.29869546    -0.12690
C840        C  0.71954988  0.38750670  0.31101777    -0.14250
C841        C  0.35182567  0.28805665  0.19924479    -0.12690
C842        C  0.37450074  0.28432088  0.16340901    -0.14250
C843        C  0.28793116  0.21737203  0.34207437    -0.12690
C844        C  0.28167953  0.18357895  0.36600478    -0.14250
C845        C  0.22588912  0.36714228  0.28810836    -0.12690
C846        C  0.19000300  0.38934160  0.28647229    -0.14250
C847        C  0.72867564  0.66939102  0.19506422    -0.12690
C848        C  0.72678779  0.62881630  0.18114157    -0.14250
C849        C  0.81650878  0.81754947  0.19951657    -0.12690
C850        C  0.85204039  0.83966489  0.19820454    -0.14250
C851        C  0.67796142  0.80225878  0.29905492    -0.12690
C852        C  0.65488466  0.80907843  0.33446172    -0.14250
C853        C  0.28866795  0.83473721  0.12502727    -0.12690
C854        C  0.28845882  0.79990181  0.14859889    -0.14250
C855        C  0.20970362  0.66009090  0.20671367    -0.12690
C856        C  0.17625648  0.63521982  0.20912910    -0.14250
C857        C  0.36489401  0.73007527  0.33190011    -0.12690
C858        C  0.34147042  0.72697356  0.29616206    -0.14250
C859        C  0.79844320  0.79418751  0.67200628    -0.12690
C860        C  0.81508960  0.80241385  0.63362882    -0.14250
C861        C  0.79489857  0.66906522  0.79137512    -0.12690
C862        C  0.80208283  0.63077789  0.80828830    -0.14250
C863        C  0.66503883  0.78400560  0.77966254    -0.12690
C864        C  0.62551293  0.79872109  0.78410342    -0.14250
loop_ 
_geom_bond_atom_site_label_1 
_geom_bond_atom_site_label_2 
_geom_bond_distance 
_geom_bond_site_symmetry_2 
_ccdc_geom_bond_type 
C1            C2   1.402       .  A
C1            C6   1.402       .  A
C1          C863   1.444       .  S
C2            C3   1.400       .  A
C2            H7   1.085       .  S
C3            C4   1.406       .  A
C3          C859   1.444       .  S
C4            C5   1.403       .  A
C4            H8   1.084       .  S
C5            C6   1.405       .  A
C5          C861   1.447       .  S
C6            H9   1.085       .  S
C10          C11   1.398       .  A
C10          C15   1.397       .  A
C10         C858   1.431       .  S
C11          C12   1.399       .  A
C11          H16   1.085       .  S
C12          C13   1.401       .  A
C12         C855   1.435       .  S
C13          C14   1.401       .  A
C13          H17   1.084       .  S
C14          C15   1.397       .  A
C14         C854   1.433       .  S
C15          H18   1.085       .  S
C19          C20   1.404       .  A
C19          C24   1.401       .  A
C19         C847   1.444       .  S
C20          C21   1.403       .  A
C20          H25   1.084       .  S
C21          C22   1.402       .  A
C21         C849   1.441       .  S
C22          C23   1.399       .  A
C22          H26   1.085       .  S
C23          C24   1.403       .  A
C23         C851   1.440       .  S
C24          H27   1.085       .  S
C28          C29   1.399       .  A
C28          C33   1.399       .  A
C28         C841   1.432       .  S
C29          C30   1.399       .  A
C29          H34   1.085       .  S
C30          C31   1.396       .  A
C30         C845   1.429       .  S
C31          C32   1.395       .  A
C31          H35   1.085       .  S
C32          C33   1.399       .  A
C32         C843   1.429       .  S
C33          H36   1.085       .  S
C37          C38   1.400       .  A
C37          C42   1.397       .  A
C37         C839   1.434       .  S
C38          C39   1.400       .  A
C38          H43   1.085       .  S
C39          C40   1.399       .  A
C39         C837   1.431       .  S
C40          C41   1.396       .  A
C40          H44   1.085       .  S
C41          C42   1.400       .  A
C41         C835   1.430       .  S
C42          H45   1.085       .  S
C46          C47   1.414       .  A
C46          C51   1.406       .  A
C46         C832   1.460       .  S
C47          C48   1.411       .  A
C47          H52   1.084       .  S
C48          C49   1.405       .  A
C48         C833   1.456       .  S
C49          C50   1.401       .  A
C49          H53   1.085       .  S
C50          C51   1.407       .  A
C50         C829   1.451       .  S
C51          H54   1.084       .  S
C55          C56   1.402       .  A
C55          C60   1.403       .  A
C55         C824   1.443       .  S
C56          C57   1.403       .  A
C56          H61   1.085       .  S
C57          C58   1.400       .  A
C57         C828   1.443       .  S
C58          C59   1.403       .  A
C58          H62   1.085       .  S
C59          C60   1.402       .  A
C59         C825   1.441       .  S
C60          H63   1.085       .  S
Zr64         O65   2.438       .  S
Zr64         O66   2.488       .  S
Zr64         O67   2.495   1_545  S
Zr64         O70   2.538       .  S
Zr64         O72   2.389   1_655  S
Zr64         O73   2.381   1_655  S
Zr64         O74   2.435   1_645  S
Zr64         O75   2.416       .  S
O65         H121   0.990       .  S
O65         H129   0.990       .  S
O66          C86   1.296       .  A
O67          C88   1.297       .  A
O68         Zr78   2.400   1_656  S
O68          C87   1.273   1_556  A
O69         Zr77   2.421       .  S
O69          C88   1.282   1_455  A
O70          C87   1.304       .  A
O71         Zr79   2.376       .  S
O71          C86   1.273   1_455  A
O72         Zr77   2.384   1_545  S
O72         Zr79   2.372       .  S
O73         Zr78   2.397       .  S
O73         Zr79   2.391       .  S
O73         H108   0.966   1_455  S
O74         Zr77   2.403       .  S
O74         Zr94   2.420   1_564  S
O74         H111   0.966   1_455  S
O75         Zr78   2.381   1_655  S
O75         Zr94   2.410   1_654  S
Zr76        O101   2.439       .  S
Zr76         O95   2.423   1_554  S
Zr76        O103   2.473   1_554  S
Zr76         O91   2.422       .  S
Zr76         O82   2.372       .  S
Zr76         O83   2.410       .  S
Zr76         O84   2.381   1_545  S
Zr76         O85   2.382   1_554  S
Zr77         O96   2.438       .  S
Zr77         O89   2.435       .  S
Zr77         O90   2.417       .  S
Zr77         O83   2.406   1_565  S
Zr77         O84   2.380       .  S
Zr78         O80   2.436   1_554  S
Zr78        O102   2.436   1_455  S
Zr78        O104   2.402   1_554  S
Zr78         O82   2.375       .  S
Zr78         O85   2.388   1_554  S
Zr79        O105   2.436       .  S
Zr79        O106   2.435       .  S
Zr79         O81   2.438       .  S
Zr79         O82   2.365       .  S
Zr79         O83   2.385       .  S
O80         H117   0.990   1_455  S
O81         H112   0.990       .  S
O81         H126   0.990       .  S
O83         H109   0.966       .  S
O84         Zr94   2.356   1_564  S
O85         Zr94   2.391       .  S
O85         H110   0.965       .  S
C86         C141   1.477       .  S
C87         C522   1.502   1_554  S
C88         C338   1.494       .  S
O89         H125   0.990       .  S
O90          C92   1.282       .  A
O91          C92   1.284   1_545  A
C92         C150   1.477       .  S
O93         Zr94   2.442   1_665  S
O93         H122   0.990       .  S
Zr94         O97   2.437   1_545  S
Zr94         O98   2.443       .  S
Zr94         O99   2.469   1_545  S
O95         C100   1.282   1_545  A
O96         H113   0.990       .  S
O96         H128   0.990       .  S
O97         H114   0.990       .  S
O98         H118   0.990   1_545  S
O98         H127   0.990       .  S
O99         C100   1.289       .  A
C100        C615   1.498       .  S
O101        H120   0.990       .  S
O101        H124   0.990       .  S
O102        H116   0.990   1_655  S
O102        H123   0.987       .  S
O103        C107   1.291       .  A
O104        C107   1.280       .  A
O105        H115   0.990       .  S
O106        H119   0.990       .  S
C107        C132   1.475       .  S
C130        C131   1.405       .  A
C130        C135   1.410       .  A
C130        C821   1.444       .  S
C131        C132   1.398       .  A
C131        H136   1.085       .  S
C132        C133   1.406   1_556  A
C133        C134   1.402   1_554  A
C133        H137   1.086       .  S
C134        C135   1.407       .  A
C134        C479   1.476   1_556  S
C135        H138   1.084       .  S
C139        C140   1.400       .  A
C139        C144   1.400       .  A
C139        C838   1.431       .  S
C140        C141   1.396       .  A
C140        H145   1.085       .  S
C141        C142   1.413       .  A
C142        C143   1.405       .  A
C142        H146   1.084   1_655  S
C143        C144   1.402       .  A
C143        C293   1.473       .  S
C144        H147   1.084       .  S
C148        C149   1.402       .  A
C148        C153   1.403       .  A
C148        C853   1.433       .  S
C149        C150   1.402       .  A
C149        H154   1.084       .  S
C150        C151   1.398       .  A
C151        C152   1.398       .  A
C151        H155   1.084       .  S
C152        C153   1.400       .  A
C152        C553   1.465       .  S
C153        H156   1.084       .  S
Zr157       O158   2.435       .  S
Zr157       O159   2.473       .  S
Zr157       O160   2.442       .  S
Zr157       O163   2.486       .  S
Zr157       O165   2.391       .  S
Zr157       O166   2.385       .  S
Zr157       O167   2.429       .  S
Zr157       O168   2.384       .  S
O158        H214   0.989       .  S
O158        H222   0.990       .  S
O159        C179   1.294       .  A
O160        C181   1.285       .  A
O161       Zr171   2.371       .  S
O161        C180   1.274       .  A
O162       Zr170   2.447       .  S
O162        C181   1.287       .  A
O163        C180   1.293       .  A
O164       Zr172   2.434       .  S
O164        C179   1.281       .  A
O165       Zr170   2.395       .  S
O165       Zr172   2.387       .  S
O166       Zr171   2.388       .  S
O166       Zr172   2.388       .  S
O166        H201   0.966       .  S
O167       Zr170   2.405       .  S
O167       Zr187   2.383       .  S
O167        H204   0.963       .  S
O168       Zr171   2.377       .  S
O168       Zr187   2.383       .  S
Zr169       O194   2.436       .  S
Zr169       O188   2.441       .  S
Zr169       O196   2.466       .  S
Zr169       O184   2.407       .  S
Zr169       O175   2.401       .  S
Zr169       O176   2.429   1_455  S
Zr169       O177   2.379   1_455  S
Zr169       O178   2.382       .  S
Zr170       O189   2.441       .  S
Zr170       O182   2.434       .  S
Zr170       O183   2.451       .  S
Zr170       O176   2.402       .  S
Zr170       O177   2.373       .  S
Zr171       O173   2.435   1_655  S
Zr171       O195   2.437       .  S
Zr171       O197   2.404   1_655  S
Zr171       O175   2.375   1_655  S
Zr171       O178   2.393   1_655  S
Zr172       O198   2.435       .  S
Zr172       O199   2.435   1_655  S
Zr172       O174   2.437       .  S
Zr172       O175   2.403   1_655  S
Zr172       O176   2.407       .  S
O173        H210   0.990       .  S
O174        H205   0.990       .  S
O174        H219   0.990       .  S
O176        H202   0.966   1_655  S
O177       Zr187   2.349       .  S
O178       Zr187   2.379   1_455  S
O178        H203   0.965       .  S
C179        C708   1.507       .  S
C180        C243   1.461       .  S
C181        C225   1.485       .  S
O182        H218   0.990       .  S
O183        C185   1.290   1_655  A
O184        C185   1.282       .  A
C185        C515   1.476       .  S
O186       Zr187   2.440       .  S
O186        H215   0.990       .  S
Zr187       O190   2.440       .  S
Zr187       O191   2.435       .  S
Zr187       O192   2.428   1_655  S
O188        C193   1.285       .  A
O189        H206   0.990       .  S
O189        H221   0.990       .  S
O190        H207   0.990       .  S
O191        H211   0.990       .  S
O191        H220   0.990   1_655  S
O192        C193   1.283       .  A
C193        C234   1.471       .  S
O194        H213   0.990       .  S
O194        H217   0.990       .  S
O195        H209   0.990   1_655  S
O195        H216   0.990       .  S
O196        C200   1.286       .  A
O197        C200   1.272       .  A
O198        H208   0.990       .  S
O199        H212   0.990       .  S
C200        C318   1.471       .  S
C223        C224   1.396       .  A
C223        C228   1.398       .  A
C223        C840   1.434       .  S
C224        C225   1.402       .  A
C224        H229   1.085       .  S
C225        C226   1.411       .  A
C226        C227   1.407       .  A
C226        H230   1.084       .  S
C227        C228   1.403       .  A
C227        C665   1.468       .  S
C228        H231   1.085       .  S
C232        C233   1.402       .  A
C232        C237   1.403       .  A
C232        C856   1.435       .  S
C233        C234   1.398       .  A
C233        H238   1.085       .  S
C234        C235   1.403       .  A
C235        C236   1.406       .  A
C235        H239   1.085       .  S
C236        C237   1.404       .  A
C236        C464   1.476       .  S
C237        H240   1.084       .  S
C241        C242   1.398       .  A
C241        C246   1.412       .  A
C241        C860   1.442       .  S
C242        C243   1.389       .  A
C242        H247   1.086       .  S
C243        C244   1.408       .  A
C244        C245   1.407       .  A
C244        H248   1.084       .  S
C245        C246   1.417       .  A
C245        C272   1.501       .  S
C246        H249   1.083       .  S
Zr250       O251   2.434       .  S
Zr250       O252   2.466   1_455  S
Zr250       O253   2.460       .  S
Zr250       O256   2.489   1_455  S
Zr250       O258   2.394       .  S
Zr250       O259   2.392   1_455  S
Zr250       O260   2.426       .  S
Zr250       O261   2.401       .  S
O251        H307   0.990       .  S
O251        H315   0.990       .  S
O252        C272   1.291       .  A
O253        C274   1.289       .  A
O254       Zr264   2.395       .  S
O254        C273   1.269       .  A
O255       Zr263   2.441       .  S
O255        C274   1.287       .  A
O256        C273   1.289       .  A
O257       Zr265   2.431       .  S
O257        C272   1.282       .  A
O258       Zr263   2.395       .  S
O258       Zr265   2.379   1_455  S
O259       Zr264   2.399       .  S
O259       Zr265   2.380       .  S
O259        H294   0.966       .  S
O260       Zr263   2.409       .  S
O260       Zr280   2.392       .  S
O260        H297   0.964       .  S
O261       Zr264   2.390   1_455  S
O261       Zr280   2.391       .  S
Zr262       O287   2.439       .  S
Zr262       O281   2.452       .  S
Zr262       O289   2.465       .  S
Zr262       O277   2.423       .  S
Zr262       O268   2.409   1_455  S
Zr262       O269   2.426       .  S
Zr262       O270   2.378   1_545  S
Zr262       O271   2.395       .  S
Zr263       O282   2.440       .  S
Zr263       O275   2.434       .  S
Zr263       O276   2.458   1_565  S
Zr263       O269   2.398   1_565  S
Zr263       O270   2.369       .  S
Zr264       O266   2.437   1_665  S
Zr264       O288   2.442   1_565  S
Zr264       O290   2.399   1_565  S
Zr264       O268   2.386   1_565  S
Zr264       O271   2.399   1_665  S
Zr265       O291   2.436       .  S
Zr265       O292   2.435   1_565  S
Zr265       O267   2.437       .  S
Zr265       O268   2.394   1_565  S
Zr265       O269   2.405   1_665  S
O266        H303   0.989   1_455  S
O267        H298   0.990       .  S
O267        H312   0.990       .  S
O269        H295   0.966       .  S
O270       Zr280   2.357       .  S
O271       Zr280   2.382   1_545  S
O271        H296   0.965       .  S
C273        C336   1.476       .  S
C274        C320   1.494       .  S
O275        H311   0.990       .  S
O276        C278   1.292       .  A
O277        C278   1.283       .  A
C278        C792   1.481       .  S
O279       Zr280   2.441       .  S
O279        H308   0.990       .  S
Zr280       O283   2.439       .  S
Zr280       O284   2.442       .  S
Zr280       O285   2.426   1_565  S
O281        C286   1.288       .  A
O282        H299   0.990       .  S
O282        H314   0.990       .  S
O283        H300   0.990       .  S
O284        H304   0.990       .  S
O284        H313   0.990   1_565  S
O285        C286   1.282       .  A
C286        C327   1.473       .  S
O287        H306   0.990       .  S
O287        H310   0.990       .  S
O288        H302   0.990   1_545  S
O288        H309   0.990   1_545  S
O289        C293   1.283   1_455  A
O290        C293   1.268       .  A
O291        H301   0.990       .  S
O292        H305   0.990       .  S
C316        C317   1.400       .  A
C316        C321   1.401       .  A
C316        C823   1.443       .  S
C317        C318   1.403       .  A
C317        H322   1.085       .  S
C318        C319   1.410       .  A
C319        C320   1.411       .  A
C319        H323   1.084       .  S
C320        C321   1.409       .  A
C321        H324   1.084       .  S
C325        C326   1.401       .  A
C325        C330   1.397       .  A
C325        C844   1.429       .  S
C326        C327   1.399       .  A
C326        H331   1.084       .  S
C327        C328   1.407       .  A
C328        C329   1.408       .  A
C328        H332   1.084       .  S
C329        C330   1.398       .  A
C329        C739   1.474       .  S
C330        H333   1.085       .  S
C334        C335   1.401       .  A
C334        C339   1.409       .  A
C334        C850   1.440       .  S
C335        C336   1.394       .  A
C335        H340   1.085       .  S
C336        C337   1.411       .  A
C337        C338   1.415       .  A
C337        H341   1.082   1_655  S
C338        C339   1.408       .  A
C339        H342   1.084       .  S
Zr343       O344   2.436       .  S
Zr343       O345   2.418       .  S
Zr343       O346   2.430       .  S
Zr343       O349   2.461       .  S
Zr343       O351   2.383       .  S
Zr343       O352   2.386       .  S
Zr343       O353   2.405       .  S
Zr343       O354   2.372       .  S
O344        H400   0.989       .  S
O344        H408   0.991       .  S
O345        C365   1.280       .  A
O346        C367   1.285       .  A
O347       Zr357   2.390       .  S
O347        C366   1.277       .  A
O348       Zr356   2.409       .  S
O348        C367   1.278       .  A
O349        C366   1.288       .  A
O350       Zr358   2.437       .  S
O350        C365   1.281       .  A
O351       Zr356   2.378       .  S
O351       Zr358   2.373       .  S
O352       Zr357   2.375       .  S
O352       Zr358   2.387       .  S
O352        H387   0.966       .  S
O353       Zr356   2.402       .  S
O353       Zr373   2.384       .  S
O353        H390   0.965       .  S
O354       Zr357   2.377       .  S
O354       Zr373   2.370       .  S
Zr355       O380   2.438       .  S
Zr355       O374   2.455       .  S
Zr355       O382   2.466       .  S
Zr355       O370   2.430       .  S
Zr355       O361   2.407       .  S
Zr355       O362   2.429   1_554  S
Zr355       O363   2.376   1_554  S
Zr355       O364   2.396       .  S
Zr356       O375   2.435       .  S
Zr356       O368   2.435       .  S
Zr356       O369   2.400       .  S
Zr356       O362   2.396       .  S
Zr356       O363   2.371       .  S
Zr357       O359   2.431   1_556  S
Zr357       O381   2.439       .  S
Zr357       O383   2.400   1_556  S
Zr357       O361   2.378   1_556  S
Zr357       O364   2.402   1_556  S
Zr358       O384   2.435       .  S
Zr358       O385   2.434   1_556  S
Zr358       O360   2.436       .  S
Zr358       O361   2.399   1_556  S
Zr358       O362   2.408       .  S
O359        H396   0.990       .  S
O360        H391   0.990       .  S
O360        H405   0.990       .  S
O362        H388   0.966   1_556  S
O363       Zr373   2.359       .  S
O364       Zr373   2.390   1_554  S
O364        H389   0.966       .  S
C365        C697   1.481       .  S
C366        C429   1.458       .  S
C367        C411   1.474       .  S
O368        H404   0.990       .  S
O369        C371   1.281   1_556  A
O370        C371   1.284       .  A
C371        C606   1.460       .  S
O372       Zr373   2.441       .  S
O372        H401   0.990       .  S
Zr373       O376   2.440       .  S
Zr373       O377   2.434       .  S
Zr373       O378   2.397       .  S
O374        C379   1.288       .  A
O375        H392   0.990       .  S
O375        H407   0.990       .  S
O376        H393   0.990       .  S
O377        H397   0.990       .  S
O377        H406   0.990   1_556  S
O378        C379   1.277   1_556  A
C379        C422   1.469       .  S
O380        H399   0.990       .  S
O380        H403   0.990       .  S
O381        H395   0.990   1_556  S
O381        H402   0.990       .  S
O382        C386   1.284       .  A
O383        C386   1.268       .  A
O384        H394   0.990       .  S
O385        H398   0.990       .  S
C386        C504   1.471       .  S
C409        C410   1.400       .  A
C409        C414   1.411       .  A
C409        C644   1.484       .  S
C410        C411   1.393       .  A
C410        H415   1.082       .  S
C411        C412   1.398       .  A
C412        C413   1.402       .  A
C412        H416   1.085       .  S
C413        C414   1.410       .  A
C413        C820   1.440       .  S
C414        H417   1.083       .  S
C418        C419   1.403       .  A
C418        C423   1.399       .  A
C418        C836   1.429       .  S
C419        C420   1.407       .  A
C419        H424   1.084       .  S
C420        C421   1.407       .  A
C420        C565   1.483       .  S
C421        C422   1.403       .  A
C421        H425   1.084   1_554  S
C422        C423   1.391       .  A
C423        H426   1.085       .  S
C427        C428   1.399       .  A
C427        C432   1.413       .  A
C427        C862   1.445       .  S
C428        C429   1.391       .  A
C428        H433   1.085       .  S
C429        C430   1.401       .  A
C430        C431   1.403       .  A
C430        H434   1.085       .  S
C431        C432   1.418       .  A
C431        C458   1.497       .  S
C432        H435   1.083       .  S
Zr436       O437   2.431       .  S
Zr436       O438   2.466   1_554  S
Zr436       O439   2.450       .  S
Zr436       O442   2.489   1_554  S
Zr436       O444   2.389       .  S
Zr436       O445   2.390   1_554  S
Zr436       O446   2.422       .  S
Zr436       O447   2.382       .  S
O437        H493   0.989   1_554  S
O437        H501   0.991       .  S
O438        C458   1.292       .  A
O439        C460   1.286       .  A
O440       Zr450   2.426       .  S
O440        C459   1.283       .  A
O441       Zr449   2.433       .  S
O441        C460   1.284       .  A
O442        C459   1.293       .  A
O443       Zr451   2.419       .  S
O443        C458   1.279       .  A
O444       Zr449   2.387       .  S
O444       Zr451   2.389   1_554  S
O445       Zr450   2.393       .  S
O445       Zr451   2.391       .  S
O445        H480   0.965       .  S
O446       Zr449   2.403       .  S
O446       Zr466   2.393       .  S
O446        H483   0.964       .  S
O447       Zr450   2.365   1_554  S
O447       Zr466   2.364       .  S
Zr448       O473   2.438       .  S
Zr448       O467   2.442       .  S
Zr448       O475   2.469       .  S
Zr448       O463   2.439       .  S
Zr448       O454   2.406   1_554  S
Zr448       O455   2.421       .  S
Zr448       O456   2.376   1_455  S
Zr448       O457   2.386       .  S
Zr449       O468   2.441       .  S
Zr449       O461   2.434       .  S
Zr449       O462   2.427   1_655  S
Zr449       O455   2.402   1_655  S
Zr449       O456   2.371       .  S
Zr450       O452   2.437   1_655  S
Zr450       O474   2.441       .  S
Zr450       O476   2.405   1_655  S
Zr450       O454   2.383   1_655  S
Zr450       O457   2.399   1_656  S
Zr451       O477   2.435       .  S
Zr451       O478   2.436   1_655  S
Zr451       O453   2.437       .  S
Zr451       O454   2.401   1_655  S
Zr451       O455   2.404   1_656  S
O452        H489   0.990   1_455  S
O453        H484   0.990       .  S
O453        H498   0.990       .  S
O455        H481   0.966       .  S
O456       Zr466   2.353       .  S
O457       Zr466   2.390   1_455  S
O457        H482   0.965       .  S
C459        C524   1.474       .  S
C460        C506   1.487       .  S
O461        H497   0.990       .  S
O462        C464   1.284       .  A
O463        C464   1.286       .  A
O465       Zr466   2.441       .  S
O465        H494   0.990       .  S
Zr466       O469   2.440       .  S
Zr466       O470   2.442       .  S
Zr466       O471   2.404   1_655  S
O467        C472   1.286       .  A
O468        H485   0.990       .  S
O468        H500   0.990       .  S
O469        H486   0.990       .  S
O470        H490   0.990       .  S
O470        H499   0.990   1_655  S
O471        C472   1.279       .  A
C472        C513   1.466       .  S
O473        H492   0.990       .  S
O473        H496   0.990       .  S
O474        H488   0.990   1_655  S
O474        H495   0.990       .  S
O475        C479   1.290       .  A
O476        C479   1.278   1_556  A
O477        H487   0.990       .  S
O478        H491   0.990       .  S
C502        C503   1.401       .  A
C502        C507   1.398       .  A
C502        C848   1.444       .  S
C503        C504   1.407       .  A
C503        H508   1.084       .  S
C504        C505   1.405       .  A
C505        C506   1.409       .  A
C505        H509   1.084       .  S
C506        C507   1.406       .  A
C507        H510   1.084       .  S
C511        C512   1.397       .  A
C511        C516   1.399       .  A
C511        C846   1.429       .  S
C512        C513   1.395       .  A
C512        H517   1.085       .  S
C513        C514   1.406       .  A
C514        C515   1.402       .  A
C514        H518   1.084       .  S
C515        C516   1.405       .  A
C516        H519   1.084       .  S
C520        C521   1.422       .  A
C520        C525   1.395       .  A
C520        C831   1.457       .  S
C521        C522   1.426       .  A
C521        H526   1.083       .  S
C522        C523   1.411   1_556  A
C523        C524   1.412   1_554  A
C523        H527   1.084       .  S
C524        C525   1.390       .  A
C525        H528   1.086       .  S
Zr529       O530   2.437       .  S
Zr529       O531   2.473       .  S
Zr529       O532   2.431   1_556  S
Zr529       O535   2.459       .  S
Zr529       O537   2.375   1_565  S
Zr529       O538   2.392       .  S
Zr529       O539   2.428   1_566  S
Zr529       O540   2.414       .  S
O530        H586   0.990       .  S
O530        H594   0.990       .  S
O531        C551   1.292       .  A
O532        C553   1.283       .  A
O533       Zr543   2.423   1_565  S
O533        C552   1.276       .  A
O534       Zr542   2.407       .  S
O534        C553   1.282   1_545  A
O535        C552   1.287       .  A
O536       Zr544   2.404       .  S
O536        C551   1.278   1_545  A
O537       Zr542   2.376   1_556  S
O537       Zr544   2.355       .  S
O538       Zr543   2.413   1_565  S
O538       Zr544   2.399   1_565  S
O538        H573   0.966       .  S
O539       Zr542   2.397       .  S
O539       Zr559   2.411   1_554  S
O539        H576   0.966   1_545  S
O540       Zr543   2.375   1_565  S
O540       Zr559   2.402   1_565  S
Zr541       O566   2.436       .  S
Zr541       O560   2.421       .  S
Zr541       O568   2.463       .  S
Zr541       O556   2.422       .  S
Zr541       O547   2.369       .  S
Zr541       O548   2.406       .  S
Zr541       O549   2.377   1_556  S
Zr541       O550   2.384       .  S
Zr542       O561   2.437       .  S
Zr542       O554   2.434       .  S
Zr542       O555   2.417       .  S
Zr542       O548   2.407   1_554  S
Zr542       O549   2.370       .  S
Zr543       O545   2.440       .  S
Zr543       O567   2.432   1_545  S
Zr543       O569   2.433       .  S
Zr543       O547   2.373       .  S
Zr543       O550   2.381       .  S
Zr544       O570   2.435       .  S
Zr544       O571   2.435       .  S
Zr544       O546   2.438       .  S
Zr544       O547   2.361       .  S
Zr544       O548   2.399       .  S
O545        H582   0.990       .  S
O546        H577   0.990       .  S
O546        H591   0.990       .  S
O548        H574   0.966       .  S
O549       Zr559   2.367   1_554  S
O550       Zr559   2.390       .  S
O550        H575   0.964       .  S
C551        C617   1.480       .  S
C552        C801   1.475       .  S
O554        H590   0.990       .  S
O555        C557   1.280       .  A
O556        C557   1.284   1_556  A
C557        C608   1.478       .  S
O558       Zr559   2.441   1_564  S
O558        H587   0.990       .  S
Zr559       O562   2.437   1_556  S
Zr559       O563   2.444       .  S
Zr559       O564   2.439   1_556  S
O560        C565   1.281   1_556  A
O561        H578   0.990       .  S
O561        H593   0.990       .  S
O562        H579   0.990       .  S
O563        H583   0.990   1_556  S
O563        H592   0.989       .  S
O564        C565   1.284       .  A
O566        H585   0.990       .  S
O566        H589   0.990       .  S
O567        H581   0.990       .  S
O567        H588   0.986       .  S
O568        C572   1.289       .  A
O569        C572   1.286       .  A
O570        H580   0.990       .  S
O571        H584   0.990       .  S
C572        C597   1.471       .  S
C595        C596   1.398       .  A
C595        C600   1.415       .  A
C595        C830   1.449       .  S
C596        C597   1.393       .  A
C596        H601   1.086       .  S
C597        C598   1.405       .  A
C598        C599   1.406       .  A
C598        H602   1.084       .  S
C599        C600   1.417       .  A
C599        C738   1.485       .  S
C600        H603   1.083       .  S
C604        C605   1.402       .  A
C604        C609   1.405       .  A
C604        C842   1.432       .  S
C605        C606   1.396       .  A
C605        H610   1.084       .  S
C606        C607   1.395       .  A
C607        C608   1.398       .  A
C607        H611   1.084       .  S
C608        C609   1.404       .  A
C609        H612   1.084       .  S
C613        C614   1.410       .  A
C613        C618   1.401       .  A
C613        C826   1.439       .  S
C614        C615   1.411       .  A
C614        H619   1.083       .  S
C615        C616   1.414       .  A
C616        C617   1.409       .  A
C616        H620   1.084   1_565  S
C617        C618   1.393       .  A
C618        H621   1.085       .  S
Zr622       O623   2.449       .  S
Zr622       O624   2.410       .  S
Zr622       O625   2.436       .  S
Zr622       O628   2.471       .  S
Zr622       O630   2.384       .  S
Zr622       O631   2.386       .  S
Zr622       O632   2.398       .  S
Zr622       O633   2.370       .  S
O623        H679   0.989       .  S
O623        H687   0.991       .  S
O624        C644   1.285       .  A
O625        C646   1.287       .  A
O626       Zr636   2.377       .  S
O626        C645   1.276       .  A
O627       Zr635   2.410       .  S
O627        C646   1.279       .  A
O628        C645   1.290       .  A
O629       Zr637   2.437       .  S
O629        C644   1.283       .  A
O630       Zr635   2.375       .  S
O630       Zr637   2.368       .  S
O631       Zr636   2.374       .  S
O631       Zr637   2.384       .  S
O631        H666   0.966       .  S
O632       Zr635   2.400       .  S
O632       Zr652   2.384       .  S
O632        H669   0.966       .  S
O633       Zr636   2.375       .  S
O633       Zr652   2.368       .  S
Zr634       O659   2.438       .  S
Zr634       O653   2.452       .  S
Zr634       O661   2.460       .  S
Zr634       O649   2.425       .  S
Zr634       O640   2.408       .  S
Zr634       O641   2.428       .  S
Zr634       O642   2.376       .  S
Zr634       O643   2.394       .  S
Zr635       O654   2.435       .  S
Zr635       O647   2.436       .  S
Zr635       O648   2.406       .  S
Zr635       O641   2.392       .  S
Zr635       O642   2.370       .  S
Zr636       O638   2.430       .  S
Zr636       O660   2.438       .  S
Zr636       O662   2.400       .  S
Zr636       O640   2.374       .  S
Zr636       O643   2.399       .  S
Zr637       O663   2.435       .  S
Zr637       O664   2.434       .  S
Zr637       O639   2.437       .  S
Zr637       O640   2.398       .  S
Zr637       O641   2.408       .  S
O638        H675   0.990       .  S
O639        H670   0.990       .  S
O639        H684   0.990       .  S
O641        H667   0.966       .  S
O642       Zr652   2.362       .  S
O643       Zr652   2.390       .  S
O643        H668   0.966       .  S
C645        C710   1.469       .  S
C646        C701   1.477       .  S
O647        H683   0.990       .  S
O648        C650   1.282       .  A
O649        C650   1.283       .  A
C650        C783   1.461       .  S
O651       Zr652   2.441       .  S
O651        H680   0.990       .  S
Zr652       O655   2.440       .  S
Zr652       O656   2.437       .  S
Zr652       O657   2.394       .  S
O653        C658   1.288       .  A
O654        H671   0.990       .  S
O654        H686   0.990       .  S
O655        H672   0.990       .  S
O656        H676   0.990       .  S
O656        H685   0.990       .  S
O657        C658   1.277       .  A
C658        C692   1.465       .  S
O659        H678   0.990       .  S
O659        H682   0.990       .  S
O660        H674   0.990       .  S
O660        H681   0.990       .  S
O661        C665   1.282       .  A
O662        C665   1.268       .  A
O663        H673   0.990       .  S
O664        H677   0.990       .  S
C688        C689   1.414       .  A
C688        C693   1.406       .  A
C688        C751   1.491       .  S
C689        C690   1.411       .  A
C689        H694   1.083       .  S
C690        C691   1.399       .  A
C690        C852   1.438       .  S
C691        C692   1.390       .  A
C691        H695   1.085       .  S
C692        C693   1.401       .  A
C693        H696   1.084       .  S
C697        C698   1.409       .  A
C697        C702   1.401       .  A
C698        C699   1.409       .  A
C698        H703   1.083       .  S
C699        C700   1.403       .  A
C699        C827   1.442       .  S
C700        C701   1.401       .  A
C700        H704   1.084       .  S
C701        C702   1.393       .  A
C702        H705   1.081       .  S
C706        C707   1.422       .  A
C706        C711   1.404       .  A
C706        C834   1.455       .  S
C707        C708   1.422       .  A
C707        H712   1.083       .  S
C708        C709   1.401       .  A
C709        C710   1.403       .  A
C709        H713   1.084       .  S
C710        C711   1.393       .  A
C711        H714   1.085       .  S
Zr715       O716   2.436       .  S
Zr715       O717   2.449       .  S
Zr715       O718   2.443       .  S
Zr715       O721   2.502       .  S
Zr715       O723   2.384   1_545  S
Zr715       O724   2.374       .  S
Zr715       O725   2.426       .  S
Zr715       O726   2.398       .  S
O716        H772   0.990       .  S
O716        H780   0.990       .  S
O717        C737   1.288       .  A
O718        C739   1.288       .  A
O719       Zr729   2.402   1_545  S
O719        C738   1.275       .  A
O720       Zr728   2.423   1_545  S
O720        C739   1.283       .  A
O721        C738   1.297       .  A
O722       Zr730   2.397   1_545  S
O722        C737   1.278       .  A
O723       Zr728   2.369       .  S
O723       Zr730   2.353       .  S
O724       Zr729   2.391   1_545  S
O724       Zr730   2.383   1_545  S
O724        H759   0.965       .  S
O725       Zr728   2.407   1_545  S
O725       Zr745   2.414   1_545  S
O725        H762   0.966       .  S
O726       Zr729   2.381   1_545  S
O726       Zr745   2.397   1_545  S
Zr727       O752   2.436       .  S
Zr727       O746   2.436       .  S
Zr727       O754   2.458       .  S
Zr727       O742   2.411       .  S
Zr727       O733   2.377       .  S
Zr727       O734   2.413       .  S
Zr727       O735   2.376       .  S
Zr727       O736   2.378       .  S
Zr728       O747   2.435       .  S
Zr728       O740   2.435       .  S
Zr728       O741   2.427       .  S
Zr728       O734   2.409       .  S
Zr728       O735   2.378       .  S
Zr729       O731   2.436       .  S
Zr729       O753   2.435   1_565  S
Zr729       O755   2.409       .  S
Zr729       O733   2.372       .  S
Zr729       O736   2.393       .  S
Zr730       O756   2.435       .  S
Zr730       O757   2.435       .  S
Zr730       O732   2.438       .  S
Zr730       O733   2.372       .  S
Zr730       O734   2.393       .  S
O731        H768   0.990   1_565  S
O732        H763   0.990       .  S
O732        H777   0.990       .  S
O734        H760   0.966       .  S
O735       Zr745   2.366       .  S
O736       Zr745   2.397       .  S
O736        H761   0.965       .  S
C737        C794   1.467       .  S
O740        H776   0.990       .  S
O741        C743   1.282       .  A
O742        C743   1.281       .  A
C743        C785   1.477       .  S
O744       Zr745   2.441   1_545  S
O744        H773   0.990       .  S
Zr745       O748   2.437   1_565  S
Zr745       O749   2.443       .  S
Zr745       O750   2.440       .  S
O746        C751   1.285       .  A
O747        H764   0.990       .  S
O747        H779   0.990       .  S
O748        H765   0.990   1_545  S
O749        H769   0.990       .  S
O749        H778   0.990       .  S
O750        C751   1.283       .  A
O752        H771   0.990       .  S
O752        H775   0.990       .  S
O753        H767   0.989   1_545  S
O753        H774   0.986       .  S
O754        C758   1.287       .  A
O755        C758   1.281       .  A
O756        H766   0.990       .  S
O757        H770   0.990       .  S
C758        C803   1.471       .  S
C781        C782   1.402       .  A
C781        C786   1.405       .  A
C781        C857   1.431       .  S
C782        C783   1.396       .  A
C782        H787   1.084       .  S
C783        C784   1.394       .  A
C784        C785   1.399       .  A
C784        H788   1.084       .  S
C785        C786   1.403       .  A
C786        H789   1.084       .  S
C790        C791   1.410       .  A
C790        C795   1.400       .  A
C790        C817   1.440       .  S
C791        C792   1.412       .  A
C791        H796   1.083       .  S
C792        C793   1.401       .  A
C793        C794   1.402       .  A
C793        H797   1.085       .  S
C794        C795   1.393       .  A
C795        H798   1.085       .  S
C799        C800   1.408       .  A
C799        C804   1.402       .  A
C799        C864   1.443       .  S
C800        C801   1.410       .  A
C800        H805   1.084       .  S
C801        C802   1.402       .  A
C802        C803   1.405       .  A
C802        H806   1.086       .  S
C803        C804   1.397       .  A
C804        H807   1.085       .  S
C808        C809   1.402       .  A
C808        C813   1.405       .  A
C808        C822   1.444       .  S
C809        C810   1.403       .  A
C809        H814   1.085       .  S
C810        C811   1.399       .  A
C810        C819   1.441       .  S
C811        C812   1.402       .  A
C811        H815   1.085       .  S
C812        C813   1.404       .  A
C812        C818   1.442       .  S
C813        H816   1.084       .  S
C817        C818   1.207       .  T
C819        C820   1.207       .  T
C821        C822   1.209       .  T
C823        C824   1.208       .  T
C825        C826   1.206       .  T
C827        C828   1.207       .  T
C829        C830   1.212       .  T
C831        C832   1.218       .  T
C833        C834   1.216       .  T
C835        C836   1.200       .  T
C837        C838   1.201       .  T
C839        C840   1.202       .  T
C841        C842   1.201       .  T
C843        C844   1.200       .  T
C845        C846   1.199       .  T
C847        C848   1.208       .  T
C849        C850   1.206       .  T
C851        C852   1.206       .  T
C853        C854   1.202       .  T
C855        C856   1.203       .  T
C857        C858   1.201       .  T
C859        C860   1.208       .  T
C861        C862   1.210       .  T
C863        C864   1.208       .  T
