geometry optimzed in LAMMPS
_audit_creation_date              2020-11-30 
_audit_creation_method            'lammps2cif' 
_symmetry_space_group_name_H-M    'P1' 
_symmetry_Int_Tables_number       1 
_symmetry_cell_setting            triclinic 
loop_ 
_symmetry_equiv_pos_as_xyz 
  x,y,z 
_cell_length_a                    42.17464276 
_cell_length_b                    42.5089145165907 
_cell_length_c                    26.326055276280847 
_cell_angle_alpha                 90.52110325364046 
_cell_angle_beta                  90.14242018831776 
_cell_angle_gamma                 89.87187409339072 
loop_ 
_atom_site_label 
_atom_site_type_symbol 
_atom_site_fract_x 
_atom_site_fract_y 
_atom_site_fract_z 
_atom_site_charge 
C1          C  0.25367859  0.92137225  0.99415118     0.85700
C2          C  0.27223051  0.91053870  0.94668888    -0.54500
C3          C  0.28097322  0.87942359  0.94640959     0.08600
C4          C  0.27102667  0.86220430  0.99538509     0.19600
C5          C  0.22601342  0.89820386  0.99871006    -0.55200
C6          C  0.23494497  0.86730012  0.99876269     0.08700
C7          C  0.27647465  0.91276250  0.03783451    -0.54800
C8          C  0.28529981  0.88189181  0.03916552     0.09300
H9          H  0.27864340  0.92631917  0.91634957     0.13800
H10         H  0.27796118  0.83713992  0.99732746    -0.00400
H11         H  0.20140520  0.90561216  0.00114432     0.14100
H12         H  0.28551967  0.92971914  0.06528183     0.13900
C13         C  0.25039736  0.05759994  0.99848689     0.85700
C14         C  0.27346998  0.06742676  0.04106119    -0.54500
C15         C  0.28210870  0.09839690  0.04143585     0.08600
C16         C  0.26816787  0.11662080  0.99586544     0.19600
C17         C  0.22285207  0.08135326  0.00123549    -0.55200
C18         C  0.23183084  0.11241065  0.99973879     0.08700
C19         C  0.26868621  0.06639476  0.95031867    -0.54800
C20         C  0.27775278  0.09697761  0.94844802     0.09300
H21         H  0.28303344  0.05103680  0.06844861     0.13800
H22         H  0.27541523  0.14154336  0.99507338    -0.00400
H23         H  0.19827222  0.07406019  0.00408998     0.14100
H24         H  0.27525327  0.04974886  0.92061448     0.13900
C25         C  0.94793644  0.75124900  0.01072834     0.85700
C26         C  0.93776729  0.73290089  0.96254890    -0.54500
C27         C  0.90637612  0.72496024  0.96044120     0.08600
C28         C  0.88798611  0.73523751  0.00847312     0.19600
C29         C  0.92505831  0.77915216  0.01485592    -0.55200
C30         C  0.89376093  0.77107386  0.01395194     0.08700
C31         C  0.93782380  0.72908903  0.05389325    -0.54800
C32         C  0.90674107  0.72001362  0.05227954     0.09300
H33         H  0.95429259  0.72565707  0.93318837     0.13800
H34         H  0.86264198  0.72847812  0.00762708    -0.00400
H35         H  0.93295577  0.80342995  0.01704596     0.14100
H36         H  0.95390508  0.72069231  0.08292333     0.13900
C37         C  0.08565592  0.74995763  0.01099633     0.85700
C38         C  0.09578604  0.72621266  0.05170506    -0.54500
C39         C  0.12671913  0.71671641  0.04944117     0.08600
C40         C  0.14525940  0.73262846  0.00603759     0.19600
C41         C  0.10906568  0.77726103  0.01561497    -0.55200
C42         C  0.14024132  0.76863140  0.01338526     0.08700
C43         C  0.09490152  0.73302942  0.96095613    -0.54800
C44         C  0.12597345  0.72382478  0.95782253     0.09300
H45         H  0.07958164  0.71714357  0.07971285     0.13800
H46         H  0.17044100  0.72533605  0.00427796    -0.00400
H47         H  0.10154089  0.80165538  0.01880078     0.14100
H48         H  0.07800436  0.72760283  0.93105020     0.13900
C49         C  0.77268672  0.91933612  0.99223636     0.85700
C50         C  0.75217359  0.90729667  0.03627904    -0.54500
C51         C  0.74455094  0.87620667  0.03378255     0.08600
C52         C  0.76035994  0.85891501  0.98857769     0.19600
C53         C  0.80246805  0.89822300  0.99592855    -0.55200
C54         C  0.79604826  0.86663258  0.99354525     0.08700
C55         C  0.75543098  0.90840963  0.94388859    -0.54800
C56         C  0.74932292  0.87702647  0.94109356     0.09300
H57         H  0.74445444  0.92239647  0.06739620     0.13800
H58         H  0.75518757  0.83332387  0.98678668    -0.00400
H59         H  0.82621418  0.90652128  0.00351733     0.14100
H60         H  0.74777741  0.92464757  0.91464043     0.13900
C61         C  0.76613000  0.05878319  0.99619868     0.85700
C62         C  0.74671475  0.06913241  0.94996988    -0.54500
C63         C  0.73894225  0.10025584  0.94911005     0.08600
C64         C  0.75309062  0.11898543  0.99440109     0.19600
C65         C  0.79584658  0.08002096  0.99457267    -0.55200
C66         C  0.78903271  0.11165281  0.99439428     0.08700
C67         C  0.74825183  0.07111250  0.04310330    -0.54800
C68         C  0.74062149  0.10222021  0.04171632     0.09300
H69         H  0.74028984  0.05281618  0.91973858     0.13800
H70         H  0.74763572  0.14453178  0.99462592    -0.00400
H71         H  0.82005588  0.07154345  0.99520667     0.14100
H72         H  0.74193131  0.05627127  0.07488495     0.13900
In73       In  0.83399852  0.62088112  0.70841724     1.36900
C74         C  0.78279327  0.65552049  0.69373575     0.76800
O75         O  0.83014566  0.64397920  0.78497153    -0.61600
O76         O  0.87596233  0.64122152  0.75245361    -0.52500
C77         C  0.83401254  0.56044149  0.73402976     0.69500
O78         O  0.80907865  0.57647713  0.72864368    -0.47400
C79         C  0.84959317  0.61676233  0.60972908     0.74200
O80         O  0.78162831  0.62894903  0.71476425    -0.59300
O81         O  0.86302410  0.63600794  0.63971972    -0.49400
O82         O  0.81022787  0.66421837  0.68113858    -0.55700
C83         C  0.85913031  0.65033938  0.78955200     0.84400
O84         O  0.85924812  0.57600711  0.72831492    -0.57600
O85         O  0.82968414  0.59936778  0.63118258    -0.60900
In86       In  0.64566884  0.79772703  0.69611950     1.36900
C87         C  0.68283771  0.74723746  0.69003983     0.76800
O88         O  0.63003100  0.78859316  0.61679684    -0.61600
O89         O  0.65918288  0.82856458  0.62968205    -0.52500
C90         C  0.58362377  0.80147468  0.71352463     0.69500
O91         O  0.59841276  0.77566733  0.71053968    -0.47400
C92         C  0.67334411  0.82587022  0.77565656     0.74200
O93         O  0.65612047  0.74667274  0.71144259    -0.59300
O94         O  0.67377506  0.83727617  0.73147658    -0.49400
O95         O  0.69007106  0.77358585  0.67198886    -0.55700
C96         C  0.64452910  0.81152030  0.59777396     0.84400
O97         O  0.60103524  0.82546396  0.70974961    -0.57600
O98         O  0.65777685  0.80073275  0.77909353    -0.60900
In99       In  0.64587541  0.18110301  0.69935113     1.36900
C100        C  0.68573029  0.22958224  0.69759633     0.76800
O101        O  0.66086851  0.18114909  0.77987880    -0.61600
O102        O  0.66865810  0.13929887  0.73629337    -0.52500
C103        C  0.58419257  0.17712237  0.71822280     0.69500
O104        O  0.59796436  0.20313910  0.71156190    -0.47400
C105        C  0.64300737  0.16596248  0.60173478     0.74200
O106        O  0.65846652  0.23144473  0.71719931    -0.59300
O107        O  0.65928043  0.14991795  0.63259155    -0.49400
O108        O  0.69187577  0.20321475  0.67749089    -0.55700
C109        C  0.67226964  0.15376421  0.77810645     0.84400
O110        O  0.60241334  0.15357355  0.71798920    -0.57600
O111        O  0.62912980  0.18943756  0.62106700    -0.60900
In112      In  0.83349944  0.36314594  0.70853260     1.36900
C113        C  0.78445317  0.32403706  0.70120505     0.76800
O114        O  0.82194753  0.37832685  0.62983916    -0.61600
O115        O  0.86524796  0.35366728  0.64024334    -0.52500
C116        C  0.83584659  0.42436428  0.73219234     0.69500
O117        O  0.81025755  0.40902883  0.72950856    -0.47400
C118        C  0.86184554  0.33501357  0.78657773     0.74200
O119        O  0.78212965  0.35089787  0.72184090    -0.59300
O120        O  0.87382835  0.33526178  0.74257349    -0.49400
O121        O  0.81177732  0.31745739  0.68506129    -0.55700
C122        C  0.84645077  0.36687359  0.60946780     0.84400
O123        O  0.86026349  0.40791076  0.72385932    -0.57600
O124        O  0.83637950  0.35032905  0.79063632    -0.60900
In125      In  0.19955014  0.61453829  0.71428839     1.36900
C126        C  0.24769015  0.65413509  0.70693743     0.76800
O127        O  0.21200472  0.59638378  0.63723567    -0.61600
O128        O  0.16995285  0.62329241  0.64352753    -0.52500
C129        C  0.20031400  0.55438764  0.74120807     0.69500
O130        O  0.22458605  0.57159966  0.74110341    -0.47400
C131        C  0.17155509  0.64407128  0.79205579     0.74200
O132        O  0.25082401  0.62680371  0.72473766    -0.59300
O133        O  0.15657266  0.63760816  0.75153385    -0.49400
O134        O  0.22009992  0.66061818  0.69149930    -0.55700
C135        C  0.18871392  0.60844887  0.61442861     0.84400
O136        O  0.17499698  0.56857860  0.72952600    -0.57600
O137        O  0.19965112  0.63411805  0.79293704    -0.60900
In138      In  0.38470859  0.79723551  0.70442718     1.36900
C139        C  0.34490613  0.74929223  0.69872822     0.76800
O140        O  0.36619286  0.79834892  0.78360728    -0.61600
O141        O  0.36210187  0.84022519  0.74047649    -0.52500
C142        C  0.44651194  0.80022962  0.72542443     0.69500
O143        O  0.43100730  0.77487251  0.72610228    -0.47400
C144        C  0.38681402  0.80541011  0.60441859     0.74200
O145        O  0.37248074  0.74651079  0.71732072    -0.59300
O146        O  0.37357595  0.82531972  0.63354727    -0.49400
O147        O  0.33805209  0.77656949  0.68366800    -0.55700
C148        C  0.35632375  0.82630658  0.78173301     0.84400
O149        O  0.42981585  0.82426314  0.71657007    -0.57600
O150        O  0.39941169  0.78258539  0.62711557    -0.60900
In151      In  0.20268931  0.35861712  0.73234384     1.36900
C152        C  0.25075031  0.31882323  0.73138938     0.76800
O153        O  0.19759392  0.34660877  0.81436337    -0.61600
O154        O  0.16015219  0.33368128  0.76428437    -0.52500
C155        C  0.20014162  0.41940228  0.75454008     0.69500
O156        O  0.22495404  0.40310382  0.76007409    -0.47400
C157        C  0.19647306  0.35897307  0.63133790     0.74200
O158        O  0.25417936  0.34731307  0.74430325    -0.59300
O159        O  0.17486986  0.34851464  0.65988633    -0.49400
O160        O  0.22279527  0.31101172  0.71990069    -0.55700
C161        C  0.17124645  0.33307765  0.80899490     0.84400
O162        O  0.17634473  0.40417528  0.73879038    -0.57600
O163        O  0.21972681  0.37070808  0.65482591    -0.60900
In164      In  0.38553776  0.17393808  0.71395321     1.36900
C165        C  0.34687820  0.22305273  0.71702601     0.76800
O166        O  0.39217218  0.19150702  0.63606162    -0.61600
O167        O  0.38257248  0.14281893  0.64343342    -0.52500
C168        C  0.44752293  0.17288057  0.73167370     0.69500
O169        O  0.43111645  0.19770117  0.73407820    -0.47400
C170        C  0.35629941  0.14163782  0.78570200     0.74200
O171        O  0.37470952  0.22447996  0.73482959    -0.59300
O172        O  0.35175197  0.13629997  0.73900773    -0.49400
O173        O  0.33911866  0.19647459  0.69964899    -0.55700
C174        C  0.38754371  0.16556408  0.61386060     0.84400
O175        O  0.43172195  0.14827454  0.72225051    -0.57600
O176        O  0.37704438  0.16216017  0.79527110    -0.60900
C177        C  0.94339034  0.22422523  0.99778067     0.85700
C178        C  0.93341319  0.24561340  0.04254058    -0.54500
C179        C  0.90276454  0.25551007  0.04083904     0.08600
C180        C  0.88431988  0.24322229  0.99418945     0.19600
C181        C  0.91916617  0.19735865  0.99728527    -0.55200
C182        C  0.88815507  0.20701199  0.99537540     0.08700
C183        C  0.93534158  0.24444940  0.95130365    -0.54800
C184        C  0.90442797  0.25374728  0.94847366     0.09300
H185        H  0.94923196  0.25304933  0.07292855     0.13800
H186        H  0.85935365  0.25151396  0.99329230    -0.00400
H187        H  0.92603549  0.17273767  0.99845658     0.14100
H188        H  0.95278720  0.25224860  0.92399182     0.13900
C189        C  0.07887061  0.22710336  0.01356403     0.85700
C190        C  0.08918359  0.24739797  0.96830849    -0.54500
C191        C  0.12017151  0.25654836  0.96971407     0.08600
C192        C  0.13809942  0.24535746  0.01740018     0.19600
C193        C  0.10287294  0.20001814  0.01460630    -0.55200
C194        C  0.13387583  0.20923665  0.01727027     0.08700
C195        C  0.08684657  0.24828823  0.05957757    -0.54800
C196        C  0.11773538  0.25752032  0.06208381     0.09300
H197        H  0.07334547  0.25462973  0.93799110     0.13800
H198        H  0.16321722  0.25309718  0.01913131    -0.00400
H199        H  0.09581265  0.17549545  0.01218344     0.14100
H200        H  0.06957281  0.25616537  0.08737373     0.13900
In201      In  0.82989422  0.61521007  0.29256958     1.36900
C202        C  0.78005033  0.65293822  0.30043999     0.76800
O203        O  0.82174125  0.59927971  0.37154117    -0.61600
O204        O  0.86268260  0.62688441  0.35897449    -0.52500
C205        C  0.83032000  0.55461606  0.26581675     0.69500
O206        O  0.80535375  0.57032220  0.27290263    -0.47400
C207        C  0.85524842  0.64385719  0.21322729     0.74200
O208        O  0.77801668  0.62503546  0.28398440    -0.59300
O209        O  0.87127959  0.63788012  0.25265507    -0.49400
O210        O  0.80746351  0.66092142  0.31489369    -0.55700
C211        C  0.84588443  0.61216503  0.39059272     0.84400
O212        O  0.85542972  0.57042317  0.27128957    -0.57600
O213        O  0.82725386  0.63372642  0.21378948    -0.60900
In214      In  0.64600468  0.79804859  0.28135277     1.36900
C215        C  0.68401642  0.74919436  0.29424568     0.76800
O216        O  0.66453930  0.79582265  0.20187915    -0.61600
O217        O  0.66922233  0.83911990  0.24222537    -0.52500
C218        C  0.58425076  0.80135658  0.25987939     0.69500
O219        O  0.59935920  0.77568835  0.26053613    -0.47400
C220        C  0.64312593  0.81229247  0.37960246     0.74200
O221        O  0.65685690  0.74644335  0.27416368    -0.59300
O222        O  0.65796137  0.82953987  0.34877095    -0.49400
O223        O  0.69160907  0.77695770  0.30630062    -0.55700
C224        C  0.67479639  0.82362886  0.20198860     0.84400
O225        O  0.60118954  0.82530401  0.26814256    -0.57600
O226        O  0.63019452  0.78849515  0.35974367    -0.60900
In227      In  0.64253298  0.18374191  0.28850306     1.36900
C228        C  0.67833646  0.23476599  0.29989563     0.76800
O229        O  0.62477747  0.18889564  0.36742968    -0.61600
O230        O  0.65917256  0.15336310  0.35267340    -0.52500
C231        C  0.58089854  0.17637286  0.26919583     0.69500
O232        O  0.59439257  0.20289792  0.26803212    -0.47400
C233        C  0.67164310  0.15646311  0.21050111     0.74200
O234        O  0.65181720  0.23566816  0.27747952    -0.59300
O235        O  0.66967938  0.14382391  0.25351355    -0.49400
O236        O  0.68595856  0.20813053  0.31641021    -0.55700
C237        C  0.64191776  0.16717107  0.38509643     0.84400
O238        O  0.59944966  0.15380931  0.27808571    -0.57600
O239        O  0.65728349  0.18235958  0.20684605    -0.60900
In240      In  0.83127499  0.35918998  0.29030946     1.36900
C241        C  0.77868156  0.32571269  0.29842828     0.76800
O242        O  0.82789642  0.33322813  0.21658711    -0.61600
O243        O  0.87375903  0.33796749  0.24868281    -0.52500
C244        C  0.83369082  0.41929162  0.26215707     0.69500
O245        O  0.80830276  0.40379891  0.26504005    -0.47400
C246        C  0.84514188  0.36224470  0.38969394     0.74200
O247        O  0.77938791  0.35181757  0.27587741    -0.59300
O248        O  0.86005958  0.34426185  0.35945765    -0.49400
O249        O  0.80460666  0.31756570  0.31855662    -0.55700
C250        C  0.85687740  0.32701311  0.21293095     0.84400
O251        O  0.85821776  0.40348765  0.27228430    -0.57600
O252        O  0.82451188  0.37908612  0.36832249    -0.60900
In253      In  0.20251449  0.61397762  0.29409729     1.36900
C254        C  0.25133091  0.65272629  0.29767887     0.76800
O255        O  0.20179023  0.62685691  0.21232264    -0.61600
O256        O  0.16240874  0.64120574  0.25751814    -0.52500
C257        C  0.19631105  0.55306953  0.27556532     0.69500
O258        O  0.22286163  0.56677602  0.27494810    -0.47400
C259        C  0.19344844  0.60926487  0.39398856     0.74200
O260        O  0.25350542  0.62540753  0.27844315    -0.59300
O261        O  0.17300682  0.62198961  0.36522515    -0.49400
O262        O  0.22435096  0.65964943  0.31525700    -0.55700
C263        C  0.17606270  0.64189747  0.21471188     0.84400
O264        O  0.17282538  0.57100486  0.28282811    -0.57600
O265        O  0.21805194  0.60005829  0.37120593    -0.60900
In266      In  0.38511758  0.79824144  0.28315086     1.36900
C267        C  0.34613538  0.74962695  0.28485883     0.76800
O268        O  0.39748482  0.78027226  0.35927058    -0.61600
O269        O  0.37604689  0.82545246  0.35615763    -0.52500
C270        C  0.44693769  0.80396416  0.26436455     0.69500
O271        O  0.43141354  0.77939009  0.25344672    -0.47400
C272        C  0.35677884  0.82942423  0.20808359     0.74200
O273        O  0.37426049  0.74707618  0.26867868    -0.59300
O274        O  0.35638885  0.83898739  0.25367885    -0.49400
O275        O  0.33831764  0.77690691  0.29924016    -0.55700
C276        C  0.38638895  0.80338540  0.38376903     0.84400
O277        O  0.43027444  0.82578762  0.28320539    -0.57600
O278        O  0.37288870  0.80474013  0.20123808    -0.60900
In279      In  0.19717453  0.35669174  0.30948959     1.36900
C280        C  0.24585128  0.31773470  0.30861445     0.76800
O281        O  0.21727583  0.36665596  0.38637818    -0.61600
O282        O  0.16994090  0.34994210  0.38268287    -0.52500
C283        C  0.19298195  0.41792426  0.29179906     0.69500
O284        O  0.21803584  0.40227705  0.28418673    -0.47400
C285        C  0.16574978  0.32817779  0.23424537     0.74200
O286        O  0.24814818  0.34550796  0.29215327    -0.59300
O287        O  0.15556739  0.32829341  0.27941027    -0.49400
O288        O  0.21863037  0.31023424  0.32393264    -0.55700
C289        C  0.19287751  0.35866628  0.41058419     0.84400
O290        O  0.16969074  0.40174084  0.30624413    -0.57600
O291        O  0.19046420  0.34413083  0.22744492    -0.60900
In292      In  0.38243613  0.17415579  0.29398981     1.36900
C293        C  0.34212386  0.22186890  0.29612188     0.76800
O294        O  0.37082293  0.16945068  0.21166298    -0.61600
O295        O  0.35413579  0.13390362  0.26051721    -0.52500
C296        C  0.44395428  0.17250085  0.27229738     0.69500
O297        O  0.42759061  0.19735470  0.27126489    -0.47400
C298        C  0.38390872  0.16644890  0.39408252     0.74200
O299        O  0.37032732  0.22497323  0.28089361    -0.59300
O300        O  0.37538353  0.14435542  0.36450550    -0.49400
O301        O  0.33494017  0.19446798  0.30988015    -0.55700
C302        C  0.35452423  0.14481179  0.21598561     0.84400
O303        O  0.42848209  0.14820103  0.28404793    -0.57600
O304        O  0.39319698  0.19086971  0.37194525    -0.60900
C305        C  0.27251456  0.29529211  0.30915183    -0.06900
C306        C  0.29577279  0.29716021  0.27125034    -0.18000
C307        C  0.31882728  0.27361267  0.26567641     0.10300
C308        C  0.31911773  0.24796521  0.29948194    -0.06800
C309        C  0.29650048  0.24681241  0.33835964    -0.18100
C310        C  0.27371137  0.27032282  0.34417703     0.10300
S311        S  0.34534809  0.27638459  0.21237794    -0.33000
S312        S  0.24751985  0.26737893  0.39803216    -0.33000
H313        H  0.24716877  0.29989874  0.40857726     0.28300
H314        H  0.34314522  0.24433233  0.19898947     0.28300
H315        H  0.29496217  0.31615011  0.24407507     0.18900
H316        H  0.29675019  0.22754541  0.36502701     0.18900
C317        C  0.19309393  0.51850329  0.27261606    -0.06900
C318        C  0.16954943  0.50440104  0.30227278    -0.18000
C319        C  0.16889453  0.47185018  0.30948018     0.10300
C320        C  0.19156221  0.45246237  0.28478920    -0.06800
C321        C  0.21423718  0.46655743  0.25331026    -0.18100
C322        C  0.21511045  0.49917237  0.24670970     0.10300
S323        S  0.14041877  0.45719045  0.35433115    -0.33000
S324        S  0.24454262  0.51456581  0.20413798    -0.33000
H325        H  0.22538528  0.53926066  0.18621466     0.28300
H326        H  0.16296793  0.43947215  0.38138962     0.28300
H327        H  0.15280799  0.51902803  0.32295668     0.18900
H328        H  0.23149070  0.45205299  0.23355000     0.18900
C329        C  0.32383012  0.72308871  0.28848576    -0.06900
C330        C  0.30343093  0.72252948  0.33048272    -0.18000
C331        C  0.28065551  0.69890705  0.33580389     0.10300
C332        C  0.27772088  0.67550490  0.29767563    -0.06800
C333        C  0.29900868  0.67526606  0.25671857    -0.18100
C334        C  0.32176903  0.69896052  0.25143268     0.10300
S335        S  0.25622994  0.69854083  0.39217569    -0.33000
S336        S  0.34575141  0.69836640  0.19488597    -0.33000
H337        H  0.34367629  0.73096528  0.18659132     0.28300
H338        H  0.27360868  0.72105245  0.42006122     0.28300
H339        H  0.30535353  0.74079945  0.35929595     0.18900
H340        H  0.29682312  0.65744742  0.22720144     0.18900
C341        C  0.54603003  0.17261017  0.26285661    -0.06900
C342        C  0.52854549  0.19796078  0.24334015    -0.18000
C343        C  0.49534558  0.19767641  0.24227961     0.10300
C344        C  0.47872554  0.17199438  0.26329140    -0.06800
C345        C  0.49615792  0.14591037  0.28015947    -0.18100
C346        C  0.52934527  0.14567781  0.27948110     0.10300
S347        S  0.47589553  0.23077571  0.21325340    -0.33000
S348        S  0.54856978  0.11096826  0.30347048    -0.33000
H349        H  0.56632158  0.10615151  0.25885719     0.28300
H350        H  0.45312412  0.21226735  0.18777028     0.28300
H351        H  0.54082850  0.21839224  0.22901231     0.18900
H352        H  0.48389569  0.12577077  0.29556303     0.18900
C353        C  0.75026065  0.30554396  0.30027328    -0.06900
C354        C  0.74519000  0.28760100  0.34393903    -0.18000
C355        C  0.72021102  0.26610571  0.34649636     0.10300
C356        C  0.69996307  0.26191248  0.30409709    -0.06800
C357        C  0.70390209  0.28108187  0.26152532    -0.18100
C358        C  0.72910544  0.30238142  0.25875763     0.10300
S359        S  0.71547603  0.24477589  0.40493426    -0.33000
S360        S  0.73493531  0.32208567  0.19922149    -0.33000
H361        H  0.76751388  0.31512425  0.19683853     0.28300
H362        H  0.68234000  0.24173984  0.40103442     0.28300
H363        H  0.76098833  0.29016042  0.37625233     0.18900
H364        H  0.68879096  0.27769316  0.22856844     0.18900
C365        C  0.54927622  0.80343296  0.25366277    -0.06900
C366        C  0.53360843  0.82938747  0.27549879    -0.18000
C367        C  0.50048042  0.83113630  0.27741458     0.10300
C368        C  0.48195686  0.80608996  0.25741322    -0.06800
C369        C  0.49770005  0.78084191  0.23334699    -0.18100
C370        C  0.53087488  0.77936131  0.23084976     0.10300
S371        S  0.48384590  0.86520462  0.30868565    -0.33000
S372        S  0.54805514  0.74608532  0.19807476    -0.33000
H373        H  0.57250884  0.76353563  0.17553870     0.28300
H374        H  0.46436698  0.87289367  0.26710617     0.28300
H375        H  0.54730624  0.84812889  0.29304678     0.18900
H376        H  0.48408454  0.76168753  0.21689797     0.18900
C377        C  0.83044346  0.52022429  0.25485282    -0.06900
C378        C  0.85979324  0.50464070  0.25088498    -0.18000
C379        C  0.86173412  0.47177069  0.24819699     0.10300
C380        C  0.83374508  0.45363436  0.25171425    -0.06800
C381        C  0.80436799  0.46926433  0.25087736    -0.18100
C382        C  0.80227468  0.50217446  0.25185231     0.10300
S383        S  0.90059088  0.45473760  0.24051793    -0.33000
S384        S  0.76333415  0.52016821  0.25050422    -0.33000
H385        H  0.74538303  0.49233501  0.24879095     0.28300
H386        H  0.89041952  0.43161923  0.20552952     0.28300
H387        H  0.88158574  0.51811239  0.25087545     0.18900
H388        H  0.78276241  0.45557547  0.25160382     0.18900
C389        C  0.70581730  0.72234540  0.30139443    -0.06900
C390        C  0.70430997  0.69702395  0.26696295    -0.18000
C391        C  0.72766069  0.67359039  0.26642658     0.10300
C392        C  0.75301601  0.67510961  0.30169021    -0.06800
C393        C  0.75341159  0.69946335  0.33802872    -0.18100
C394        C  0.72987758  0.72265458  0.33890975     0.10300
S395        S  0.72489753  0.64397750  0.21723694    -0.33000
S396        S  0.73153362  0.75143283  0.38965173    -0.33000
H397        H  0.69843671  0.75360659  0.39564431     0.28300
H398        H  0.75652248  0.64753805  0.20142327     0.28300
H399        H  0.68584139  0.69641361  0.23827433     0.18900
H400        H  0.77219883  0.70041285  0.36618476     0.18900
C401        C  0.15161341  0.30925289  0.19276371    -0.06900
C402        C  0.12836111  0.32263638  0.16148927    -0.18000
C403        C  0.11748848  0.30681481  0.11774150     0.10300
C404        C  0.13006676  0.27683528  0.10499016    -0.06800
C405        C  0.15339450  0.26363007  0.13623337    -0.18100
C406        C  0.16404773  0.27933356  0.18001765     0.10300
S407        S  0.08852474  0.32667851  0.07888730    -0.33000
S408        S  0.19405153  0.26025964  0.21775695    -0.33000
H409        H  0.18253545  0.27119452  0.26475673     0.28300
H410        H  0.09781445  0.31291972  0.03252242     0.28300
H411        H  0.11929005  0.34591031  0.17039701     0.18900
H412        H  0.16288663  0.24054567  0.12706802     0.18900
C413        C  0.04445309  0.21568838  0.01076980    -0.06900
C414        C  0.03030967  0.21047159  0.96290590    -0.18000
C415        C  0.99728391  0.20819976  0.95769837     0.10300
C416        C  0.97797752  0.21322192  0.00092381    -0.06800
C417        C  0.99241498  0.20995705  0.04880785    -0.18100
C418        C  0.02537700  0.21023627  0.05415163     0.19900
S419        S  0.98063832  0.19648114  0.89714313    -0.33000
S420        S  0.04079872  0.20233500  0.11676445    -0.33000
H421        H  0.06938505  0.18909999  0.09984414     0.28300
H422        H  0.00904508  0.19706001  0.86929164     0.28300
H423        H  0.04507117  0.20874241  0.92946931     0.18900
H424        H  0.97797289  0.20805977  0.08259201     0.18900
C425        C  0.88934910  0.27580623  0.08148780    -0.06900
C426        C  0.86515393  0.26350566  0.11164996    -0.18000
C427        C  0.85510530  0.27920040  0.15576650     0.10300
C428        C  0.86921558  0.30815904  0.16995446    -0.06800
C429        C  0.89308990  0.32074249  0.13935858    -0.18100
C430        C  0.90300007  0.30513520  0.09498593     0.10300
S431        S  0.82513856  0.26033515  0.19357938    -0.33000
S432        S  0.93248926  0.32432094  0.05660297    -0.33000
H433        H  0.92398777  0.30997253  0.01030744     0.28300
H434        H  0.83633940  0.27150165  0.24076065     0.28300
H435        H  0.85498165  0.24081698  0.10198699     0.18900
H436        H  0.90333837  0.34336141  0.14918411     0.18900
C437        C  0.38646164  0.16360647  0.55763462    -0.06900
C438        C  0.37829835  0.19128559  0.53211456    -0.18000
C439        C  0.37585426  0.19218077  0.47945789     0.10300
C440        C  0.38263512  0.16493273  0.45023106    -0.06800
C441        C  0.39010326  0.13683124  0.47543543    -0.18100
C442        C  0.39243815  0.13596107  0.52878801     0.10300
S443        S  0.36249873  0.22874642  0.45239007    -0.33000
S444        S  0.40498039  0.09963786  0.55728069    -0.33000
H445        H  0.42575833  0.11412402  0.59221094     0.28300
H446        H  0.34311664  0.21420485  0.41563798     0.28300
H447        H  0.37298669  0.21255447  0.55348306     0.18900
H448        H  0.39548781  0.11583443  0.45343912     0.18900
C449        C  0.19530748  0.35735460  0.57493320    -0.06900
C450        C  0.16615585  0.36085897  0.54962671    -0.18000
C451        C  0.16449077  0.36201394  0.49629853     0.10300
C452        C  0.19245018  0.35870404  0.46710810    -0.06800
C453        C  0.22147521  0.35471264  0.49258547    -0.18100
C454        C  0.22318548  0.35358091  0.54561041     0.10300
S455        S  0.12635707  0.36971050  0.46810411    -0.33000
S456        S  0.26158313  0.34565325  0.57315720    -0.33000
H457        H  0.24996467  0.32538951  0.61068884     0.28300
H458        H  0.13803391  0.39139145  0.43269913     0.28300
H459        H  0.14465588  0.36396890  0.57156972     0.18900
H460        H  0.24310222  0.35160572  0.47093140     0.18900
C461        C  0.15606877  0.31567837  0.85085275    -0.06900
C462        C  0.14202039  0.28666542  0.83902228    -0.18000
C463        C  0.13188394  0.26638170  0.87716260     0.10300
C464        C  0.13423184  0.27572596  0.92869096    -0.06800
C465        C  0.14795752  0.30489708  0.94076921    -0.18100
C466        C  0.15881200  0.32497951  0.90249433     0.10300
S467        S  0.11822178  0.22793266  0.85769513    -0.33000
S468        S  0.17504019  0.36243069  0.92194066    -0.33000
H469        H  0.16395397  0.37898702  0.87936763     0.28300
H470        H  0.13022628  0.21211881  0.90035132     0.28300
H471        H  0.14063187  0.27884909  0.79978494     0.18900
H472        H  0.14955721  0.31239461  0.98013019     0.18900
C473        C  0.27710308  0.29618226  0.72758367    -0.06900
C474        C  0.27564359  0.27387334  0.68816841    -0.18000
C475        C  0.29942427  0.25146265  0.68157463     0.10300
C476        C  0.32462801  0.24988617  0.71696334    -0.06800
C477        C  0.32692414  0.27302483  0.75522306    -0.18100
C478        C  0.30343292  0.29617618  0.76090381     0.10300
S479        S  0.29684427  0.22665093  0.62575083    -0.33000
S480        S  0.30750456  0.32368567  0.81297800    -0.33000
H481        H  0.27531242  0.32288570  0.82679579     0.28300
H482        H  0.32968453  0.22667753  0.61648036     0.28300
H483        H  0.25611343  0.27435922  0.66133039     0.18900
H484        H  0.34632754  0.27224421  0.78224932     0.18900
C485        C  0.38659928  0.80670309  0.54805017    -0.06900
C486        C  0.38939626  0.77793587  0.52186407    -0.18000
C487        C  0.38814191  0.77614010  0.46900793     0.10300
C488        C  0.38539853  0.80401815  0.44022970    -0.06800
C489        C  0.38213094  0.83290813  0.46625265    -0.18100
C490        C  0.38274566  0.83456272  0.51965247     0.10300
S491        S  0.38825056  0.73712108  0.44146383    -0.33000
S492        S  0.37963480  0.87288713  0.54888336    -0.33000
H493        H  0.40371607  0.86736328  0.58481881     0.28300
H494        H  0.36239228  0.74311844  0.40901018     0.28300
H495        H  0.39145345  0.75621131  0.54288715     0.18900
H496        H  0.37978498  0.85446099  0.44490085     0.18900
C497        C  0.18548611  0.60590601  0.55796352    -0.06900
C498        C  0.20684150  0.58601341  0.53214421    -0.18000
C499        C  0.20898553  0.58549440  0.47898006     0.10300
C500        C  0.18959162  0.60594804  0.45001933    -0.06800
C501        C  0.16684893  0.62440665  0.47551381    -0.18100
C502        C  0.16423694  0.62423343  0.52873822     0.10300
S503        S  0.23636087  0.55804933  0.44937654    -0.33000
S504        S  0.13387588  0.64854748  0.55668043    -0.33000
H505        H  0.12188027  0.62409391  0.58672362     0.28300
H506        H  0.24983426  0.54594836  0.49406631     0.28300
H507        H  0.22248025  0.57103927  0.55391925     0.18900
H508        H  0.15127989  0.63958462  0.45390795     0.18900
C509        C  0.20139805  0.52018844  0.75229218    -0.06900
C510        C  0.17273341  0.50437593  0.76133858    -0.18000
C511        C  0.17181629  0.47167663  0.76704160     0.10300
C512        C  0.20000117  0.45396539  0.76170651    -0.06800
C513        C  0.22888207  0.46986159  0.75640140    -0.18100
C514        C  0.23002916  0.50262254  0.75153681     0.10300
S515        S  0.13409916  0.45410231  0.78166003    -0.33000
S516        S  0.26812905  0.52067359  0.74001926    -0.33000
H517        H  0.28705990  0.49433661  0.75123939     0.28300
H518        H  0.14695659  0.43083236  0.81343053     0.28300
H519        H  0.15074947  0.51754913  0.76368000     0.18900
H520        H  0.25055855  0.45636013  0.75268862     0.18900
C521        C  0.27391317  0.67705968  0.70419262    -0.06900
C522        C  0.27325445  0.69927451  0.66511738    -0.18000
C523        C  0.29693767  0.72202660  0.66072295     0.10300
C524        C  0.32186186  0.72315129  0.69676885    -0.06800
C525        C  0.32306761  0.70035454  0.73496034    -0.18100
C526        C  0.29913483  0.67780900  0.73968991     0.10300
S527        S  0.29419198  0.74839100  0.60757439    -0.33000
S528        S  0.30071672  0.65272674  0.79445452    -0.33000
H529        H  0.26835170  0.65629567  0.80618526     0.28300
H530        H  0.32704051  0.74897689  0.59828932     0.28300
H531        H  0.25423471  0.69875183  0.63735147     0.18900
H532        H  0.34176647  0.70125358  0.76324404     0.18900
C533        C  0.85012641  0.36376742  0.44581021    -0.06900
C534        C  0.84054348  0.39134643  0.47143371    -0.18000
C535        C  0.84087704  0.39358944  0.52464803     0.10300
C536        C  0.85133610  0.36775188  0.55361959    -0.06800
C537        C  0.86289803  0.34088043  0.52823779    -0.18100
C538        C  0.86182448  0.33835078  0.47492850     0.10300
S539        S  0.82819628  0.42978944  0.55512789    -0.33000
S540        S  0.87287072  0.30109838  0.44705405    -0.33000
H541        H  0.84517603  0.29865874  0.41733965     0.28300
H542        H  0.81917543  0.44575220  0.51079406     0.28300
H543        H  0.83210650  0.41112999  0.44955471     0.18900
H544        H  0.87065574  0.32081170  0.55015222     0.18900
C545        C  0.87501435  0.31625107  0.82894069    -0.06900
C546        C  0.88987350  0.28760042  0.81700392    -0.18000
C547        C  0.89826337  0.26623362  0.85486173     0.10300
C548        C  0.89275948  0.27391230  0.90655098    -0.06800
C549        C  0.87815238  0.30266383  0.91865912    -0.18100
C550        C  0.86967122  0.32403516  0.88065090     0.10300
S551        S  0.91392165  0.22878734  0.83399301    -0.33000
S552        S  0.85352373  0.36137740  0.90084303    -0.33000
H553        H  0.86819245  0.37879078  0.86225987     0.28300
H554        H  0.90229138  0.21127220  0.87493054     0.28300
H555        H  0.89349329  0.28099454  0.77757361     0.18900
H556        H  0.87425930  0.30899968  0.95811044     0.18900
C557        C  0.64089716  0.15915347  0.54680615    -0.06900
C558        C  0.66824437  0.14996527  0.52024337    -0.18000
C559        C  0.66879960  0.14984929  0.46697171     0.10300
C560        C  0.64156163  0.15961303  0.43978023    -0.06800
C561        C  0.61355441  0.16607462  0.46652489    -0.18100
C562        C  0.61281254  0.16565058  0.51957800     0.10300
S563        S  0.70570121  0.14013918  0.43637726    -0.33000
S564        S  0.57584986  0.17354374  0.55204776    -0.33000
H565        H  0.55763814  0.18053988  0.50875699     0.28300
H566        H  0.69198025  0.11672318  0.40531252     0.28300
H567        H  0.68978164  0.14460955  0.54099409     0.18900
H568        H  0.59236932  0.17244185  0.44567571     0.18900
C569        C  0.54944435  0.17452545  0.72478920    -0.06900
C570        C  0.53310573  0.19952569  0.74813254    -0.18000
C571        C  0.50016539  0.19868689  0.75460332     0.10300
C572        C  0.48264204  0.17276362  0.73551244    -0.06800
C573        C  0.49916324  0.14726420  0.71387655    -0.18100
C574        C  0.53209723  0.14793010  0.70787108     0.10300
S575        S  0.48225132  0.23103841  0.78875761    -0.33000
S576        S  0.54992002  0.11499716  0.67493451    -0.33000
H577        H  0.56972064  0.13345545  0.64444226     0.28300
H578        H  0.46087151  0.21196967  0.81548077     0.28300
H579        H  0.54617859  0.21973870  0.76220958     0.18900
H580        H  0.48617811  0.12724284  0.69885878     0.18900
C581        C  0.70907610  0.25568298  0.69772786    -0.06900
C582        C  0.73197388  0.25600382  0.65909556    -0.18000
C583        C  0.75565310  0.27896248  0.65778689     0.10300
C584        C  0.75767383  0.30165500  0.69727829    -0.06800
C585        C  0.73459539  0.30168708  0.73561389    -0.18100
C586        C  0.71029601  0.27922110  0.73608224     0.10300
S587        S  0.78173687  0.27860873  0.60357763    -0.33000
S588        S  0.68315688  0.28045547  0.78867120    -0.33000
H589        H  0.65663319  0.28550440  0.75724064     0.28300
H590        H  0.78276662  0.31156433  0.59906045     0.28300
H591        H  0.73114237  0.23845620  0.62898988     0.18900
H592        H  0.73593918  0.31885829  0.76623628     0.18900
C593        C  0.64392165  0.81693010  0.54230316    -0.06900
C594        C  0.61622049  0.80844093  0.51604686    -0.18000
C595        C  0.61461524  0.80921004  0.46314415     0.10300
C596        C  0.64153298  0.81817763  0.43496191    -0.06800
C597        C  0.66872402  0.82856252  0.46104777    -0.18100
C598        C  0.67036413  0.82764983  0.51436085     0.10300
S599        S  0.57746019  0.79814331  0.43394276    -0.33000
S600        S  0.70769479  0.83745580  0.54381915    -0.33000
H601        H  0.70784100  0.81142403  0.57645626     0.28300
H602        H  0.58015572  0.81874313  0.39262469     0.28300
H603        H  0.59560801  0.80067933  0.53699521     0.18900
H604        H  0.68959900  0.83519272  0.43976410     0.18900
C605        C  0.54868688  0.80295302  0.72028008    -0.06900
C606        C  0.53329367  0.77677443  0.74101138    -0.18000
C607        C  0.50028952  0.77595418  0.74663864     0.10300
C608        C  0.48165259  0.80167741  0.73017132    -0.06800
C609        C  0.49718261  0.82842371  0.71152480    -0.18100
C610        C  0.53016815  0.82916638  0.70558543     0.10300
S611        S  0.48373658  0.74145717  0.77557066    -0.33000
S612        S  0.54654198  0.86315004  0.67483784    -0.33000
H613        H  0.56458951  0.84536247  0.63995819     0.28300
H614        H  0.46161660  0.75843949  0.80497402     0.28300
H615        H  0.54711585  0.75667315  0.75318393     0.18900
H616        H  0.48339582  0.84829755  0.69834736     0.18900
C617        C  0.85493691  0.61451358  0.55372019    -0.06900
C618        C  0.84377531  0.58735967  0.52854907    -0.18000
C619        C  0.84263652  0.58519161  0.47540751     0.10300
C620        C  0.85253559  0.61097234  0.44596180    -0.06800
C621        C  0.86582031  0.63726277  0.47066782    -0.18100
C622        C  0.86727594  0.63925925  0.52399472     0.10300
S623        S  0.82859638  0.54920487  0.44577328    -0.33000
S624        S  0.88276667  0.67495875  0.55141456    -0.33000
H625        H  0.90445571  0.65901894  0.58274260     0.28300
H626        H  0.82253692  0.53256788  0.49063657     0.28300
H627        H  0.83504218  0.56792218  0.55075283     0.18900
H628        H  0.87373514  0.65707100  0.44839474     0.18900
C629        C  0.83398624  0.52588394  0.74286176    -0.06900
C630        C  0.86316294  0.50986722  0.74202244    -0.18000
C631        C  0.86479120  0.47695486  0.74228725     0.10300
C632        C  0.83649754  0.45902387  0.74157638    -0.06800
C633        C  0.80741157  0.47506510  0.74571161    -0.18100
C634        C  0.80582164  0.50797519  0.74718948     0.10300
S635        S  0.90381413  0.45970178  0.74240292    -0.33000
S636        S  0.76692840  0.52523637  0.75321771    -0.33000
H637        H  0.77628777  0.54668755  0.79141625     0.28300
H638        H  0.89674042  0.43871272  0.78182602     0.28300
H639        H  0.88507701  0.52304981  0.73999271     0.18900
H640        H  0.78545028  0.46189475  0.74666996     0.18900
C641        C  0.75456665  0.67554900  0.68644105    -0.06900
C642        C  0.72901681  0.67261644  0.72012736    -0.18000
C643        C  0.70383783  0.69413903  0.71980988     0.10300
C644        C  0.70478725  0.72005436  0.68647346    -0.06800
C645        C  0.72929144  0.72156330  0.65051413    -0.18100
C646        C  0.75357624  0.69923754  0.64922347     0.10300
S647        S  0.67234230  0.68803198  0.76460101    -0.33000
S648        S  0.78218549  0.70206772  0.59862190    -0.33000
H649        H  0.78559688  0.66932956  0.59199105     0.28300
H650        H  0.64857203  0.68892115  0.72701057     0.28300
H651        H  0.72909456  0.65401166  0.74802315     0.18900
H652        H  0.72969071  0.74046638  0.62314691     0.18900
C653        C  0.81380392  0.13671215  0.99714734    -0.06900
C654        C  0.81292160  0.16106079  0.96156778    -0.18000
C655        C  0.83599267  0.18488888  0.96097861     0.10300
C656        C  0.86130824  0.18408324  0.99627455    -0.06800
C657        C  0.86191054  0.15996707  0.03249773    -0.18100
C658        C  0.83827413  0.13683659  0.03402369     0.10300
S659        S  0.83368623  0.21470653  0.91266973    -0.33000
S660        S  0.84017098  0.10898706  0.08520933    -0.33000
H661        H  0.80717496  0.10657839  0.09128411     0.28300
H662        H  0.80412033  0.20586784  0.89227586     0.28300
H663        H  0.79471845  0.16078520  0.93284371     0.18900
H664        H  0.88074288  0.15946269  0.06056083     0.18900
C665        C  0.71956049  0.11433761  0.90736045    -0.06900
C666        C  0.72696345  0.14474077  0.89093500    -0.18000
C667        C  0.71222698  0.15784491  0.84854276     0.10300
C668        C  0.68923518  0.14034842  0.82153304    -0.06800
C669        C  0.68086231  0.11046089  0.83840776    -0.18100
C670        C  0.69474763  0.09784229  0.88200064     0.10300
S671        S  0.72478906  0.19655956  0.82963811    -0.33000
S672        S  0.67665017  0.06283558  0.90635480    -0.33000
H673        H  0.67855820  0.07338636  0.95706137     0.28300
H674        H  0.72342644  0.19027387  0.77712577     0.28300
H675        H  0.74483048  0.15837890  0.91027797     0.18900
H676        H  0.66209381  0.09763490  0.81916411     0.18900
C677        C  0.68964948  0.14255144  0.16782454    -0.06900
C678        C  0.67890892  0.14772192  0.11807973    -0.18000
C679        C  0.69519220  0.13528244  0.07603411     0.10300
C680        C  0.72322781  0.11777133  0.08391993    -0.06800
C681        C  0.73421291  0.11309143  0.13364165    -0.18100
C682        C  0.71785872  0.12529424  0.17563702     0.10300
S683        S  0.67883933  0.14039848  0.01318386    -0.33000
S684        S  0.73413793  0.11978951  0.23856562    -0.33000
H685        H  0.76261727  0.10518594  0.22356695     0.28300
H686        H  0.65049867  0.15531122  0.02804758     0.28300
H687        H  0.65732561  0.16109859  0.11230442     0.18900
H688        H  0.75576951  0.09971178  0.13947666     0.18900
C689        C  0.77458300  0.95553849  0.99301581    -0.06900
C690        C  0.74529824  0.97092415  0.99925458    -0.18000
C691        C  0.74235584  0.00346774  0.00164239     0.10300
C692        C  0.76962553  0.02277083  0.99661108    -0.06800
C693        C  0.79897205  0.00768993  0.98777726    -0.18100
C694        C  0.80157517  0.97467164  0.98403639     0.10300
S695        S  0.70267434  0.01912408  0.00971515    -0.33000
S696        S  0.83853707  0.95995626  0.95945993    -0.33000
H697        H  0.82390529  0.93917632  0.92472564     0.28300
H698        H  0.68816038  0.99154479  0.02736143     0.28300
H699        H  0.72389633  0.95698995  0.00143754     0.18900
H700        H  0.81989456  0.02136545  0.98021482     0.18900
C701        C  0.72411147  0.86126920  0.07299504    -0.06900
C702        C  0.73393480  0.83280009  0.09452517    -0.18000
C703        C  0.71873104  0.82050797  0.13723815     0.10300
C704        C  0.69247195  0.83652515  0.15856875    -0.06800
C705        C  0.68180665  0.86434380  0.13609165    -0.18100
C706        C  0.69670404  0.87639251  0.09290574     0.10300
S707        S  0.73508141  0.78517589  0.16443067    -0.33000
S708        S  0.67818299  0.90983819  0.06313536    -0.33000
H709        H  0.68729650  0.90147633  0.01341494     0.28300
H710        H  0.72861889  0.79340643  0.21523528     0.28300
H711        H  0.75435389  0.82058244  0.07934835     0.18900
H712        H  0.66099852  0.87614075  0.15116640     0.18900
C713        C  0.73121150  0.86294204  0.89786771    -0.06900
C714        C  0.70442038  0.84475106  0.90899213    -0.18000
C715        C  0.68414898  0.83372607  0.87043457     0.10300
C716        C  0.69131239  0.83982873  0.81892208    -0.06800
C717        C  0.71805198  0.85801931  0.80787254    -0.18100
C718        C  0.73797913  0.86959737  0.84622472     0.10300
S719        S  0.64858034  0.81381703  0.88985369    -0.33000
S720        S  0.77175898  0.89196741  0.82517185    -0.33000
H721        H  0.79013275  0.88829392  0.86878517     0.28300
H722        H  0.62911966  0.82831579  0.85334946     0.28300
H723        H  0.69835463  0.84033955  0.94827395     0.18900
H724        H  0.72403204  0.86269901  0.76864133     0.18900
C725        C  0.14051135  0.69362770  0.08633169    -0.06900
C726        C  0.17165676  0.69805634  0.10371714    -0.18000
C727        C  0.18337238  0.68204670  0.14605035     0.10300
C728        C  0.16404186  0.65994579  0.17100084    -0.06800
C729        C  0.13393243  0.65331769  0.15117677    -0.18100
C730        C  0.12251297  0.66894384  0.10805926     0.10300
S731        S  0.22272059  0.69203199  0.16783729    -0.33000
S732        S  0.08679372  0.65360785  0.07934074    -0.33000
H733        H  0.09502942  0.66191398  0.02944041     0.28300
H734        H  0.21557841  0.69004843  0.21983817     0.28300
H735        H  0.18683972  0.71484215  0.08546756     0.18900
H736        H  0.11981836  0.63488487  0.16801315     0.18900
C737        C  0.15883503  0.66350614  0.83440532    -0.06900
C738        C  0.17907447  0.68621354  0.85587511    -0.18000
C739        C  0.16877714  0.70687914  0.89413336     0.10300
C740        C  0.13795431  0.70378592  0.91458173    -0.06800
C741        C  0.11783751  0.68055708  0.89339767    -0.18100
C742        C  0.12768606  0.66089675  0.85324896     0.10300
S743        S  0.19499430  0.73866546  0.91065556    -0.33000
S744        S  0.09968450  0.63255315  0.82882792    -0.33000
H745        H  0.12221671  0.60875482  0.81962174     0.28300
H746        H  0.17051127  0.76100503  0.90832574     0.28300
H747        H  0.20278501  0.68901492  0.84076432     0.18900
H748        H  0.09426134  0.67723376  0.90863350     0.18900
C749        C  0.86848808  0.79544567  0.01086524    -0.06900
C750        C  0.86677454  0.81318397  0.96631686    -0.18000
C751        C  0.84366647  0.83661294  0.95996822     0.10300
C752        C  0.82116405  0.84219233  0.99858794    -0.06800
C753        C  0.82336229  0.82507632  0.04376985    -0.18100
C754        C  0.84711060  0.80230422  0.05080224     0.10300
S755        S  0.84327994  0.85917647  0.90240979    -0.33000
S756        S  0.85005057  0.78495061  0.11278739    -0.33000
H757        H  0.88246659  0.77745118  0.11031152     0.28300
H758        H  0.87004895  0.84520126  0.87972415     0.28300
H759        H  0.88367388  0.80845327  0.93627864     0.18900
H760        H  0.80741649  0.83052911  0.07475183     0.18900
C761        C  0.05057305  0.76017712  0.01387308    -0.06900
C762        C  0.03394203  0.76689484  0.96876161    -0.18000
C763        C  0.00073680  0.76836849  0.96743790     0.10300
C764        C  0.98318361  0.76082176  0.01170242    -0.06800
C765        C  0.99985285  0.76133408  0.05815070    -0.18100
C766        C  0.03306956  0.76213236  0.05988176     0.10300
S767        S  0.98305919  0.78093483  0.90840938    -0.33000
S768        S  0.05082501  0.76714325  0.12193389    -0.33000
H769        H  0.07841352  0.78204088  0.10481941     0.28300
H770        H  0.95563727  0.79402073  0.93005814     0.28300
H771        H  0.04681477  0.77082974  0.93388484     0.18900
H772        H  0.98702613  0.76109856  0.09369006     0.18900
C773        C  0.89303267  0.70535133  0.91780764    -0.06900
C774        C  0.91113185  0.67989065  0.89895680    -0.18000
C775        C  0.90069141  0.66128653  0.85792890     0.10300
C776        C  0.87142736  0.66808780  0.83434008    -0.06800
C777        C  0.85292128  0.69290983  0.85381552    -0.18100
C778        C  0.86343021  0.71180878  0.89461423     0.10300
S779        S  0.92512927  0.62841012  0.83904868    -0.33000
S780        S  0.83959529  0.74519509  0.91371134    -0.33000
H781        H  0.81634221  0.74259310  0.87553606     0.28300
H782        H  0.89964514  0.60811254  0.82817856     0.28300
H783        H  0.93350501  0.67403859  0.91687373     0.18900
H784        H  0.83040942  0.69807920  0.83581348     0.18900
C785        C  0.89274674  0.69748216  0.08923120    -0.06900
C786        C  0.86198857  0.70320812  0.10720913    -0.18000
C787        C  0.84941082  0.68625324  0.14762596     0.10300
C788        C  0.86759819  0.66219208  0.17032365    -0.06800
C789        C  0.89749243  0.65485974  0.15032338    -0.18100
C790        C  0.90976286  0.67144262  0.10900067     0.10300
S791        S  0.81068059  0.69779671  0.17017509    -0.33000
S792        S  0.94555478  0.65617283  0.08047677    -0.33000
H793        H  0.93762616  0.66522432  0.03072707     0.28300
H794        H  0.81819887  0.69489673  0.22200053     0.28300
H795        H  0.84784108  0.72176700  0.09100914     0.18900
H796        H  0.91086290  0.63534871  0.16581242     0.18900
C797        C  0.20829404  0.13894981  0.00481667    -0.06900
C798        C  0.18403077  0.13594521  0.04097567    -0.18000
C799        C  0.16077015  0.15914983  0.04775664     0.10300
C800        C  0.16060668  0.18608864  0.01665920    -0.06800
C801        C  0.18522067  0.18979036  0.98144862    -0.18100
C802        C  0.20904723  0.16671233  0.97511541     0.10300
S803        S  0.13277561  0.15346497  0.09847439    -0.33000
S804        S  0.23866787  0.17256013  0.92670123    -0.33000
H805        H  0.22760616  0.20174722  0.90910661     0.28300
H806        H  0.12992131  0.18561191  0.11087769     0.28300
H807        H  0.18353062  0.11550601  0.06521268     0.18900
H808        H  0.18506157  0.21038115  0.95751367     0.18900
C809        C  0.33665974  0.13132859  0.17201548    -0.06900
C810        C  0.34345754  0.14286237  0.12337024    -0.18000
C811        C  0.32573300  0.13395840  0.08033933     0.10300
C812        C  0.30080679  0.11189689  0.08524080    -0.06800
C813        C  0.29367622  0.10093202  0.13430933    -0.18100
C814        C  0.31121605  0.11004521  0.17716249     0.10300
S815        S  0.33628794  0.15109157  0.02044106    -0.33000
S816        S  0.29886544  0.09452447  0.23730440    -0.33000
H817        H  0.32863137  0.08084793  0.24724903     0.28300
H818        H  0.35432446  0.17625601  0.03997315     0.28300
H819        H  0.36281637  0.15928678  0.11898353     0.18900
H820        H  0.27398578  0.08496193  0.13958969     0.18900
C821        C  0.29716407  0.10829358  0.90579399    -0.06900
C822        C  0.32989120  0.11095056  0.91343923    -0.18000
C823        C  0.35003046  0.12061446  0.87458244     0.10300
C824        C  0.33737432  0.12678506  0.82599067    -0.06800
C825        C  0.30496922  0.12144056  0.81706576    -0.18100
C826        C  0.28470934  0.11223757  0.85631323     0.10300
S827        S  0.39171195  0.12361599  0.88911197    -0.33000
S828        S  0.24362857  0.10538542  0.83993125    -0.33000
H829        H  0.23082899  0.10648792  0.88899906     0.28300
H830        H  0.40205438  0.11350199  0.84087251     0.28300
H831        H  0.34003758  0.10439257  0.94962061     0.18900
H832        H  0.29508932  0.12558769  0.77965575     0.18900
C833        C  0.16572990  0.79291235  0.01037016    -0.06900
C834        C  0.16524779  0.81336264  0.96872609    -0.18000
C835        C  0.18800581  0.83701533  0.96309240     0.10300
C836        C  0.21174823  0.84108498  0.00052785    -0.06800
C837        C  0.21249633  0.82066367  0.04201045    -0.18100
C838        C  0.18932843  0.79731898  0.04810789     0.10300
S839        S  0.18575251  0.86064108  0.90660362    -0.33000
S840        S  0.18956007  0.77672203  0.10743676    -0.33000
H841        H  0.15689884  0.77034241  0.10857010     0.28300
H842        H  0.21844245  0.86625603  0.90246700     0.28300
H843        H  0.14703902  0.81065360  0.93990288     0.18900
H844        H  0.23029590  0.82405029  0.07132225     0.18900
C845        C  0.24022801  0.02281352  0.99983204    -0.06900
C846        C  0.23470664  0.00653129  0.95379825    -0.18000
C847        C  0.23516007  0.97357858  0.95111359     0.10300
C848        C  0.24306444  0.95610156  0.99510490    -0.06800
C849        C  0.24092550  0.97210831  0.04213196    -0.18100
C850        C  0.23863851  0.00495237  0.04507192     0.10300
S851        S  0.22392612  0.95603152  0.89110479    -0.33000
S852        S  0.23219382  0.02179784  0.10745268    -0.33000
H853        H  0.21727570  0.04930838  0.09034212     0.28300
H854        H  0.21070858  0.92889768  0.91221568     0.28300
H855        H  0.23062580  0.01953961  0.91919613     0.18900
H856        H  0.24129063  0.95901985  0.07721973     0.18900
C857        C  0.30003966  0.86506113  0.90404118    -0.06900
C858        C  0.32354071  0.88350910  0.88066014    -0.18000
C859        C  0.34220485  0.87175313  0.84081697     0.10300
C860        C  0.33803489  0.84048107  0.82402515    -0.06800
C861        C  0.31496888  0.82184474  0.84738979    -0.18100
C862        C  0.29540542  0.83384670  0.88608065     0.10300
S863        S  0.37161155  0.89749390  0.81427779    -0.33000
S864        S  0.26343178  0.80943855  0.90856433    -0.33000
H865        H  0.26600335  0.78541088  0.87170911     0.28300
H866        H  0.39466265  0.87391333  0.80708814     0.28300
H867        H  0.32798302  0.90724969  0.89410323     0.18900
H868        H  0.31158027  0.79793447  0.83391286     0.18900
C869        C  0.33946465  0.84482403  0.16557404    -0.06900
C870        C  0.34606170  0.83473508  0.11561643    -0.18000
C871        C  0.32983682  0.84701745  0.07370854     0.10300
C872        C  0.30508622  0.86903707  0.08137551    -0.06800
C873        C  0.29846647  0.87910906  0.13128218    -0.18100
C874        C  0.31556985  0.86783502  0.17299056     0.10300
S875        S  0.34349352  0.83507682  0.01171496    -0.33000
S876        S  0.30470765  0.88309934  0.23451964    -0.33000
H877        H  0.33545452  0.89426496  0.24496638     0.28300
H878        H  0.34143436  0.86556199  0.99170235     0.28300
H879        H  0.36457639  0.81748982  0.10884598     0.18900
H880        H  0.27950835  0.89583669  0.13808793     0.18900
loop_ 
_geom_bond_atom_site_label_1 
_geom_bond_atom_site_label_2 
_geom_bond_distance 
_geom_bond_site_symmetry_2 
_ccdc_geom_bond_type 
C1            C2   1.542       .  S
C1            C7   1.543   1_556  S
C1            C5   1.534       .  S
C1          C848   1.542       .  S
C2            H9   1.083       .  S
C2            C3   1.372       .  D
C3            C4   1.548       .  S
C3          C857   1.501       .  S
C4            C8   1.540   1_556  S
C4            C6   1.539       .  S
C4           H10   1.106       .  S
C5           H11   1.086   1_556  S
C5            C6   1.366       .  D
C6          C836   1.486   1_556  S
C7           H12   1.085       .  S
C7            C8   1.364       .  D
C8          C872   1.495       .  S
C13          C14   1.538   1_556  S
C13          C19   1.535       .  S
C13          C17   1.539   1_556  S
C13         C845   1.541       .  S
C14          H21   1.084       .  S
C14          C15   1.367       .  D
C15          C16   1.548   1_554  S
C15         C812   1.506       .  S
C16          C20   1.550       .  S
C16          C18   1.547       .  S
C16          H22   1.104       .  S
C17          H23   1.086       .  S
C17          C18   1.375   1_554  D
C18         C797   1.506   1_556  S
C19          H24   1.086       .  S
C19          C20   1.357       .  D
C20         C821   1.476       .  S
C25          C26   1.543   1_554  S
C25          C31   1.544       .  S
C25          C29   1.531       .  S
C25         C764   1.542       .  S
C26          H33   1.084       .  S
C26          C27   1.368       .  D
C27          C28   1.544   1_556  S
C27         C773   1.501       .  S
C28          C32   1.543       .  S
C28          C30   1.549       .  S
C28          H34   1.108       .  S
C29          H35   1.086       .  S
C29          C30   1.365       .  D
C30         C749   1.487       .  S
C31          H36   1.083       .  S
C31          C32   1.368       .  D
C32         C785   1.495       .  S
C37          C38   1.538       .  S
C37          C43   1.546   1_554  S
C37          C41   1.529       .  S
C37         C761   1.543       .  S
C38          H45   1.081       .  S
C38          C39   1.366       .  D
C39          C40   1.548       .  S
C39         C725   1.502       .  S
C40          C44   1.549   1_554  S
C40          C42   1.555       .  S
C40          H46   1.107       .  S
C41          H47   1.086       .  S
C41          C42   1.366       .  D
C42         C833   1.495       .  S
C43          H48   1.084       .  S
C43          C44   1.369       .  D
C44         C740   1.503       .  S
C49          C50   1.540   1_556  S
C49          C55   1.533       .  S
C49          C53   1.545       .  S
C49         C689   1.541       .  S
C50          H57   1.086       .  S
C50          C51   1.362       .  D
C51          C52   1.545   1_554  S
C51         C701   1.494       .  S
C52          C56   1.544       .  S
C52          C54   1.546       .  S
C52          H58   1.111       .  S
C53          H59   1.080   1_556  S
C53          C54   1.371       .  D
C54         C752   1.489       .  S
C55          H60   1.087       .  S
C55          C56   1.361       .  D
C56         C713   1.491       .  S
C61          C62   1.532       .  S
C61          C67   1.536   1_556  S
C61          C65   1.547       .  S
C61         C692   1.538       .  S
C62          H69   1.085       .  S
C62          C63   1.363       .  D
C63          C64   1.547       .  S
C63         C665   1.497       .  S
C64          C68   1.535   1_556  S
C64          C66   1.547       .  S
C64          H70   1.110       .  S
C65          H71   1.082       .  S
C65          C66   1.374       .  D
C66         C653   1.495       .  S
C67          H72   1.087       .  S
C67          C68   1.361       .  D
C68         C680   1.483       .  S
In73         O75   2.240       .  S
In73         O76   2.281       .  S
In73         O84   2.248       .  S
In73         O78   2.232       .  S
In73         O80   2.241       .  S
In73         O81   2.284       .  S
In73         O82   2.220       .  S
In73         O85   2.229       .  S
C74          O80   1.264       .  A
C74          O82   1.262       .  A
C74         C641   1.475       .  S
O75          C83   1.258       .  A
O76          C83   1.266       .  A
C77          O84   1.264       .  A
C77          O78   1.260       .  A
C77         C629   1.489       .  S
C79          O81   1.266       .  A
C79          O85   1.258       .  A
C79         C617   1.494       .  S
C83         C776   1.487       .  S
In86         O88   2.219       .  S
In86         O89   2.270       .  S
In86         O97   2.247       .  S
In86         O91   2.239       .  S
In86         O93   2.253       .  S
In86         O94   2.252       .  S
In86         O95   2.225       .  S
In86         O98   2.245       .  S
C87          O93   1.261       .  A
C87          O95   1.259       .  A
C87         C644   1.481       .  S
O88          C96   1.260       .  A
O89          C96   1.265       .  A
C90          O97   1.263       .  A
C90          O91   1.263       .  A
C90         C605   1.486       .  S
C92          O94   1.264       .  A
C92          O98   1.259       .  A
C92         C716   1.486       .  S
C96         C593   1.481       .  S
In99        O101   2.211       .  S
In99        O102   2.246       .  S
In99        O110   2.235       .  S
In99        O104   2.248       .  S
In99        O106   2.251       .  S
In99        O107   2.264       .  S
In99        O108   2.237       .  S
In99        O111   2.208       .  S
C100        O106   1.264       .  A
C100        O108   1.262       .  A
C100        C581   1.485       .  S
O101        C109   1.259       .  A
O102        C109   1.265       .  A
C103        O110   1.261       .  A
C103        O104   1.264       .  A
C103        C569   1.481       .  S
C105        O107   1.265       .  A
C105        O111   1.260       .  A
C105        C557   1.475       .  S
C109        C668   1.466       .  S
In112       O114   2.228       .  S
In112       O115   2.277       .  S
In112       O123   2.248       .  S
In112       O117   2.246       .  S
In112       O119   2.258       .  S
In112       O120   2.259       .  S
In112       O121   2.231       .  S
In112       O124   2.237       .  S
C113        O119   1.264       .  A
C113        O121   1.259       .  A
C113        C584   1.481       .  S
O114        C122   1.260       .  A
O115        C122   1.266       .  A
C116        O123   1.262       .  A
C116        O117   1.264       .  A
C116        C632   1.492       .  S
C118        O120   1.265       .  A
C118        O124   1.259       .  A
C118        C545   1.483       .  S
C122        C536   1.486       .  S
In125       O127   2.227       .  S
In125       O128   2.273       .  S
In125       O136   2.253       .  S
In125       O130   2.226       .  S
In125       O132   2.241       .  S
In125       O133   2.279       .  S
In125       O134   2.231       .  S
In125       O137   2.224       .  S
C126        O132   1.263       .  A
C126        O134   1.262       .  A
C126        C521   1.478       .  S
O127        C135   1.260       .  A
O128        C135   1.266       .  A
C129        O136   1.264       .  A
C129        O130   1.260       .  A
C129        C509   1.486       .  S
C131        O133   1.267       .  A
C131        O137   1.258       .  A
C131        C737   1.482       .  S
C135        C497   1.495       .  S
In138       O140   2.228       .  S
In138       O141   2.262       .  S
In138       O149   2.245       .  S
In138       O143   2.245       .  S
In138       O145   2.247       .  S
In138       O146   2.272       .  S
In138       O147   2.222       .  S
In138       O150   2.213       .  S
C139        O145   1.266       .  A
C139        O147   1.262       .  A
C139        C524   1.478       .  S
O140        C148   1.260       .  A
O141        C148   1.266       .  A
C142        O149   1.263       .  A
C142        O143   1.262       .  A
C142        C608   1.488       .  S
C144        O146   1.267       .  A
C144        O150   1.260       .  A
C144        C485   1.485       .  S
C148        C860   1.479       .  S
In151       O153   2.234       .  S
In151       O154   2.254       .  S
In151       O162   2.236       .  S
In151       O156   2.229       .  S
In151       O158   2.245       .  S
In151       O159   2.275       .  S
In151       O160   2.214       .  S
In151       O163   2.230       .  S
C152        O158   1.263       .  A
C152        O160   1.261       .  A
C152        C473   1.472       .  S
O153        C161   1.259       .  A
O154        C161   1.266       .  A
C155        O162   1.263       .  A
C155        O156   1.263       .  A
C155        C512   1.480       .  S
C157        O159   1.266       .  A
C157        O163   1.260       .  A
C157        C449   1.487       .  S
C161        C461   1.480       .  S
In164       O166   2.207       .  S
In164       O167   2.273       .  S
In164       O175   2.242       .  S
In164       O169   2.234       .  S
In164       O171   2.259       .  S
In164       O172   2.249       .  S
In164       O173   2.211       .  S
In164       O176   2.233       .  S
C165        O171   1.264       .  A
C165        O173   1.259       .  A
C165        C476   1.475       .  S
O166        C174   1.259       .  A
O167        C174   1.265       .  A
C168        O175   1.264       .  A
C168        O169   1.262       .  A
C168        C572   1.484       .  S
C170        O172   1.262       .  A
C170        O176   1.260       .  A
C170        C824   1.476       .  S
C174        C437   1.482       .  S
C177        C178   1.541   1_556  S
C177        C183   1.539       .  S
C177        C181   1.534       .  S
C177        C416   1.533   1_556  S
C178        H185   1.086       .  S
C178        C179   1.359       .  D
C179        C180   1.540   1_554  S
C179        C425   1.481       .  S
C180        C184   1.544       .  S
C180        C182   1.548       .  S
C180        H186   1.110       .  S
C181        H187   1.086       .  S
C181        C182   1.371       .  D
C182        C656   1.496       .  S
C183        H188   1.085       .  S
C183        C184   1.364       .  D
C184        C548   1.486       .  S
C189        C190   1.541   1_554  S
C189        C195   1.540       .  S
C189        C193   1.532       .  S
C189        C413   1.533       .  S
C190        H197   1.086       .  S
C190        C191   1.365       .  D
C191        C192   1.542   1_556  S
C191        C464   1.485       .  S
C192        C196   1.543       .  S
C192        C194   1.546       .  S
C192        H198   1.111       .  S
C193        H199   1.086       .  S
C193        C194   1.367       .  D
C194        C800   1.495       .  S
C195        H200   1.084       .  S
C195        C196   1.363       .  D
C196        C404   1.484       .  S
In201       O203   2.220       .  S
In201       O204   2.278       .  S
In201       O212   2.252       .  S
In201       O206   2.229       .  S
In201       O208   2.238       .  S
In201       O209   2.261       .  S
In201       O210   2.234       .  S
In201       O213   2.227       .  S
C202        O208   1.262       .  A
C202        O210   1.262       .  A
C202        C392   1.478       .  S
O203        C211   1.258       .  A
O204        C211   1.265       .  A
C205        O212   1.263       .  A
C205        O206   1.259       .  A
C205        C377   1.488       .  S
C207        O209   1.265       .  A
C207        O213   1.258       .  A
C207        C788   1.475       .  S
C211        C620   1.485       .  S
In214       O216   2.236       .  S
In214       O217   2.261       .  S
In214       O225   2.243       .  S
In214       O219   2.251       .  S
In214       O221   2.246       .  S
In214       O222   2.270       .  S
In214       O223   2.221       .  S
In214       O226   2.212       .  S
C215        O221   1.266       .  A
C215        O223   1.261       .  A
C215        C389   1.477       .  S
O216        C224   1.260       .  A
O217        C224   1.264       .  A
C218        O225   1.262       .  A
C218        O219   1.263       .  A
C218        C365   1.486       .  S
C220        O222   1.266       .  A
C220        O226   1.259       .  A
C220        C596   1.478       .  S
C224        C704   1.477       .  S
In227       O229   2.219       .  S
In227       O230   2.246       .  S
In227       O238   2.235       .  S
In227       O232   2.252       .  S
In227       O234   2.264       .  S
In227       O235   2.238       .  S
In227       O236   2.226       .  S
In227       O239   2.240       .  S
C228        O234   1.264       .  A
C228        O236   1.257       .  A
C228        C356   1.476       .  S
O229        C237   1.263       .  A
O230        C237   1.263       .  A
C231        O238   1.260       .  A
C231        O232   1.265       .  A
C231        C341   1.488       .  S
C233        O235   1.261       .  A
C233        O239   1.260       .  A
C233        C677   1.476       .  S
C237        C560   1.478       .  S
In240       O242   2.228       .  S
In240       O243   2.282       .  S
In240       O251   2.256       .  S
In240       O245   2.234       .  S
In240       O247   2.242       .  S
In240       O248   2.280       .  S
In240       O249   2.233       .  S
In240       O252   2.233       .  S
C241        O247   1.264       .  A
C241        O249   1.263       .  A
C241        C353   1.476       .  S
O242        C250   1.254       .  A
O243        C250   1.265       .  A
C244        O251   1.261       .  A
C244        O245   1.261       .  A
C244        C380   1.488       .  S
C246        O248   1.266       .  A
C246        O252   1.260       .  A
C246        C533   1.493       .  S
C250        C428   1.476       .  S
In253       O255   2.226       .  S
In253       O256   2.265       .  S
In253       O264   2.234       .  S
In253       O258   2.234       .  S
In253       O260   2.246       .  S
In253       O261   2.274       .  S
In253       O262   2.217       .  S
In253       O265   2.217       .  S
C254        O260   1.266       .  A
C254        O262   1.263       .  A
C254        C332   1.477       .  S
O255        C263   1.260       .  A
O256        C263   1.267       .  A
C257        O264   1.262       .  A
C257        O258   1.264       .  A
C257        C317   1.477       .  S
C259        O261   1.269       .  A
C259        O265   1.260       .  A
C259        C500   1.492       .  S
C263        C728   1.477       .  S
In266       O268   2.212       .  S
In266       O269   2.267       .  S
In266       O277   2.238       .  S
In266       O271   2.248       .  S
In266       O273   2.253       .  S
In266       O274   2.254       .  S
In266       O275   2.217       .  S
In266       O278   2.235       .  S
C267        O273   1.265       .  A
C267        O275   1.260       .  A
C267        C329   1.474       .  S
O268        C276   1.260       .  A
O269        C276   1.268       .  A
C270        O277   1.261       .  A
C270        O271   1.265       .  A
C270        C368   1.492       .  S
C272        O274   1.264       .  A
C272        O278   1.261       .  A
C272        C869   1.490       .  S
C276        C488   1.487       .  S
In279       O281   2.230       .  S
In279       O282   2.266       .  S
In279       O290   2.238       .  S
In279       O284   2.238       .  S
In279       O286   2.248       .  S
In279       O287   2.269       .  S
In279       O288   2.206       .  S
In279       O291   2.238       .  S
C280        O286   1.265       .  A
C280        O288   1.260       .  A
C280        C305   1.473       .  S
O281        C289   1.261       .  A
O282        C289   1.267       .  A
C283        O290   1.262       .  A
C283        O284   1.263       .  A
C283        C320   1.482       .  S
C285        O287   1.265       .  A
C285        O291   1.259       .  A
C285        C401   1.476       .  S
C289        C452   1.488       .  S
In292       O294   2.228       .  S
In292       O295   2.260       .  S
In292       O303   2.246       .  S
In292       O297   2.232       .  S
In292       O299   2.248       .  S
In292       O300   2.277       .  S
In292       O301   2.219       .  S
In292       O304   2.212       .  S
C293        O299   1.264       .  A
C293        O301   1.261       .  A
C293        C308   1.474       .  S
O294        C302   1.260       .  A
O295        C302   1.265       .  A
C296        O303   1.264       .  A
C296        O297   1.261       .  A
C296        C344   1.486       .  S
C298        O300   1.267       .  A
C298        O304   1.259       .  A
C298        C440   1.481       .  S
C302        C809   1.491       .  S
C305        C306   1.404       .  A
C305        C310   1.413       .  A
C306        C307   1.401       .  A
C306        H315   1.084       .  S
C307        C308   1.414       .  A
C307        S311   1.801       .  S
C308        C309   1.402       .  A
C309        C310   1.393       .  A
C309        H316   1.084       .  S
C310        S312   1.805       .  S
S311        H314   1.407       .  S
S312        H313   1.408       .  S
C317        C318   1.404       .  A
C317        C322   1.411       .  A
C318        C319   1.399       .  A
C318        H327   1.084       .  S
C319        C320   1.416       .  A
C319        S323   1.802       .  S
C320        C321   1.406       .  A
C321        C322   1.399       .  A
C321        H328   1.084       .  S
C322        S324   1.802       .  S
S323        H326   1.408       .  S
S324        H325   1.407       .  S
C329        C330   1.403       .  A
C329        C334   1.412       .  A
C330        C331   1.399       .  A
C330        H339   1.084       .  S
C331        C332   1.412       .  A
C331        S335   1.809       .  S
C332        C333   1.405       .  A
C333        C334   1.401       .  A
C333        H340   1.084       .  S
C334        S336   1.802       .  S
S335        H338   1.407       .  S
S336        H337   1.407       .  S
C341        C342   1.405       .  A
C341        C346   1.418       .  A
C342        C343   1.400       .  A
C342        H351   1.083       .  S
C343        C344   1.416       .  A
C343        S347   1.802       .  S
C344        C345   1.404       .  A
C345        C346   1.400       .  A
C345        H352   1.084       .  S
C346        S348   1.801       .  S
S347        H350   1.408       .  S
S348        H349   1.408       .  S
C353        C354   1.402       .  A
C353        C358   1.415       .  A
C354        C355   1.398       .  A
C354        H363   1.084       .  S
C355        C356   1.414       .  A
C355        S359   1.805       .  S
C356        C357   1.402       .  A
C357        C358   1.400       .  A
C357        H364   1.084       .  S
C358        S360   1.801       .  S
S359        H362   1.407       .  S
S360        H361   1.406       .  S
C365        C366   1.404       .  A
C365        C370   1.414       .  A
C366        C367   1.400       .  A
C366        H375   1.084       .  S
C367        C368   1.419       .  A
C367        S371   1.801       .  S
C368        C369   1.407       .  A
C369        C370   1.402       .  A
C369        H376   1.084       .  S
C370        S372   1.802       .  S
S371        H374   1.407       .  S
S372        H373   1.407       .  S
C377        C378   1.406       .  A
C377        C382   1.417       .  A
C378        C379   1.401       .  A
C378        H387   1.084       .  S
C379        C380   1.415       .  A
C379        S383   1.801       .  S
C380        C381   1.405       .  A
C381        C382   1.402       .  A
C381        H388   1.083       .  S
C382        S384   1.811       .  S
S383        H386   1.408       .  S
S384        H385   1.406       .  S
C389        C390   1.402       .  A
C389        C394   1.414       .  A
C390        C391   1.399       .  A
C390        H399   1.084       .  S
C391        C392   1.416       .  A
C391        S395   1.801       .  S
C392        C393   1.403       .  A
C393        C394   1.397       .  A
C393        H400   1.084       .  S
C394        S396   1.804       .  S
S395        H398   1.407       .  S
S396        H397   1.408       .  S
C401        C402   1.402       .  A
C401        C406   1.413       .  A
C402        C403   1.405       .  A
C402        H411   1.084       .  S
C403        C404   1.417       .  A
C403        S407   1.805       .  S
C404        C405   1.401       .  A
C405        C406   1.400       .  A
C405        H412   1.084       .  S
C406        S408   1.803       .  S
S407        H410   1.405       .  S
S408        H409   1.405       .  S
C413        C414   1.409   1_554  A
C413        C418   1.420       .  A
C414        C415   1.403   1_455  A
C414        H423   1.081       .  S
C415        C416   1.415   1_556  A
C415        S419   1.807       .  S
C416        C417   1.406       .  A
C417        C418   1.397   1_655  A
C417        H424   1.083       .  S
C418        S420   1.805       .  S
S419        H422   1.407   1_655  S
S420        H421   1.401       .  S
C425        C426   1.400       .  A
C425        C430   1.416       .  A
C426        C427   1.400       .  A
C426        H435   1.084       .  S
C427        C428   1.415       .  A
C427        S431   1.805       .  S
C428        C429   1.401       .  A
C429        C430   1.402       .  A
C429        H436   1.084       .  S
C430        S432   1.805       .  S
S431        H434   1.407       .  S
S432        H433   1.404       .  S
C437        C438   1.402       .  A
C437        C442   1.416       .  A
C438        C439   1.391       .  A
C438        H447   1.084       .  S
C439        C440   1.414       .  A
C439        S443   1.804       .  S
C440        C441   1.406       .  A
C441        C442   1.409       .  A
C441        H448   1.083       .  S
C442        S444   1.801       .  S
S443        H446   1.405       .  S
S444        H445   1.407       .  S
C449        C450   1.405       .  A
C449        C454   1.416       .  A
C450        C451   1.407       .  A
C450        H459   1.084       .  S
C451        C452   1.415       .  A
C451        S455   1.800       .  S
C452        C453   1.405       .  A
C453        C454   1.399       .  A
C453        H460   1.084       .  S
C454        S456   1.805       .  S
S455        H458   1.407       .  S
S456        H457   1.406       .  S
C461        C462   1.402       .  A
C461        C466   1.417       .  A
C462        C463   1.398       .  A
C462        H471   1.084       .  S
C463        C464   1.413       .  A
C463        S467   1.804       .  S
C464        C465   1.403       .  A
C465        C466   1.405       .  A
C465        H472   1.083       .  S
C466        S468   1.804       .  S
S467        H470   1.407       .  S
S468        H469   1.407       .  S
C473        C474   1.401       .  A
C473        C478   1.413       .  A
C474        C475   1.392       .  A
C474        H483   1.084       .  S
C475        C476   1.414       .  A
C475        S479   1.804       .  S
C476        C477   1.405       .  A
C477        C478   1.402       .  A
C477        H484   1.084       .  S
C478        S480   1.802       .  S
S479        H482   1.407       .  S
S480        H481   1.407       .  S
C485        C486   1.403       .  A
C485        C490   1.415       .  A
C486        C487   1.394       .  A
C486        H495   1.084       .  S
C487        C488   1.417       .  A
C487        S491   1.804       .  S
C488        C489   1.407       .  A
C489        C490   1.407       .  A
C489        H496   1.083       .  S
C490        S492   1.800       .  S
S491        H494   1.408       .  S
S492        H493   1.407       .  S
C497        C498   1.406       .  A
C497        C502   1.416       .  A
C498        C499   1.403       .  A
C498        H507   1.082       .  S
C499        C500   1.418       .  A
C499        S503   1.812       .  S
C500        C501   1.406       .  A
C501        C502   1.406       .  A
C501        H508   1.083       .  S
C502        S504   1.798       .  S
S503        H506   1.406       .  S
S504        H505   1.408       .  S
C509        C510   1.406       .  A
C509        C514   1.418       .  A
C510        C511   1.400       .  A
C510        H519   1.084       .  S
C511        C512   1.412       .  A
C511        S515   1.803       .  S
C512        C513   1.402       .  A
C513        C514   1.401       .  A
C513        H520   1.082       .  S
C514        S516   1.810       .  S
S515        H518   1.408       .  S
S516        H517   1.407       .  S
C521        C522   1.403       .  A
C521        C526   1.414       .  A
C522        C523   1.398       .  A
C522        H531   1.084       .  S
C523        C524   1.415       .  A
C523        S527   1.804       .  S
C524        C525   1.404       .  A
C525        C526   1.400       .  A
C525        H532   1.084       .  S
C526        S528   1.802       .  S
S527        H530   1.408       .  S
S528        H529   1.408       .  S
C533        C534   1.406       .  A
C533        C538   1.417       .  A
C534        C535   1.403       .  A
C534        H543   1.083       .  S
C535        C536   1.412       .  A
C535        S539   1.809       .  S
C536        C537   1.405       .  A
C537        C538   1.407       .  A
C537        H544   1.084       .  S
C538        S540   1.800       .  S
S539        H542   1.407       .  S
S540        H541   1.408       .  S
C545        C546   1.402       .  A
C545        C550   1.417       .  A
C546        C547   1.399       .  A
C546        H555   1.084       .  S
C547        C548   1.416       .  A
C547        S551   1.804       .  S
C548        C549   1.402       .  A
C549        C550   1.403       .  A
C549        H556   1.083       .  S
C550        S552   1.802       .  S
S551        H554   1.405       .  S
S552        H553   1.408       .  S
C557        C558   1.403       .  A
C557        C562   1.411       .  A
C558        C559   1.403       .  A
C558        H567   1.084       .  S
C559        C560   1.415       .  A
C559        S563   1.800       .  S
C560        C561   1.402       .  A
C561        C562   1.397       .  A
C561        H568   1.083       .  S
C562        S564   1.809       .  S
S563        H566   1.407       .  S
S564        H565   1.406       .  S
C569        C570   1.403       .  A
C569        C574   1.416       .  A
C570        C571   1.401       .  A
C570        H579   1.084       .  S
C571        C572   1.416       .  A
C571        S575   1.802       .  S
C572        C573   1.404       .  A
C573        C574   1.399       .  A
C573        H580   1.084       .  S
C574        S576   1.804       .  S
S575        H578   1.408       .  S
S576        H577   1.405       .  S
C581        C582   1.404       .  A
C581        C586   1.416       .  A
C582        C583   1.399       .  A
C582        H591   1.084       .  S
C583        C584   1.414       .  A
C583        S587   1.804       .  S
C584        C585   1.404       .  A
C585        C586   1.403       .  A
C585        H592   1.084       .  S
C586        S588   1.799       .  S
S587        H590   1.408       .  S
S588        H589   1.407       .  S
C593        C594   1.402       .  A
C593        C598   1.416       .  A
C594        C595   1.395       .  A
C594        H603   1.084       .  S
C595        C596   1.413       .  A
C595        S599   1.805       .  S
C596        C597   1.405       .  A
C597        C598   1.406       .  A
C597        H604   1.084       .  S
C598        S600   1.801       .  S
S599        H602   1.408       .  S
S600        H601   1.407       .  S
C605        C606   1.405       .  A
C605        C610   1.416       .  A
C606        C607   1.401       .  A
C606        H615   1.084       .  S
C607        C608   1.416       .  A
C607        S611   1.802       .  S
C608        C609   1.406       .  A
C609        C610   1.401       .  A
C609        H616   1.084       .  S
C610        S612   1.802       .  S
S611        H614   1.407       .  S
S612        H613   1.408       .  S
C617        C618   1.407       .  A
C617        C622   1.417       .  A
C618        C619   1.402       .  A
C618        H627   1.082       .  S
C619        C620   1.413       .  A
C619        S623   1.811       .  S
C620        C621   1.405       .  A
C621        C622   1.407       .  A
C621        H628   1.084       .  S
C622        S624   1.798       .  S
S623        H626   1.406       .  S
S624        H625   1.407       .  S
C629        C630   1.405       .  A
C629        C634   1.418       .  A
C630        C631   1.401       .  A
C630        H639   1.084       .  S
C631        C632   1.417       .  A
C631        S635   1.800       .  S
C632        C633   1.406       .  A
C633        C634   1.401       .  A
C633        H640   1.084       .  S
C634        S636   1.802       .  S
S635        H638   1.408       .  S
S636        H637   1.408       .  S
C641        C642   1.404       .  A
C641        C646   1.412       .  A
C642        C643   1.400       .  A
C642        H651   1.084       .  S
C643        C644   1.415       .  A
C643        S647   1.799       .  S
C644        C645   1.405       .  A
C645        C646   1.395       .  A
C645        H652   1.084       .  S
C646        S648   1.805       .  S
S647        H650   1.408       .  S
S648        H649   1.408       .  S
C653        C654   1.403       .  A
C653        C658   1.415   1_556  A
C654        C655   1.406       .  A
C654        H663   1.076       .  S
C655        C656   1.414       .  A
C655        S659   1.806       .  S
C656        C657   1.407   1_556  A
C657        C658   1.403       .  A
C657        H664   1.084       .  S
C658        S660   1.803       .  S
S659        H662   1.407       .  S
S660        H661   1.405       .  S
C665        C666   1.403       .  A
C665        C670   1.423       .  A
C666        C667   1.396       .  A
C666        H675   1.076       .  S
C667        C668   1.410       .  A
C667        S671   1.805       .  S
C668        C669   1.396       .  A
C669        C670   1.398       .  A
C669        H676   1.084       .  S
C670        S672   1.798       .  S
S671        H674   1.407       .  S
S672        H673   1.407       .  S
C677        C678   1.404       .  A
C677        C682   1.412       .  A
C678        C679   1.403       .  A
C678        H687   1.083       .  S
C679        C680   1.412       .  A
C679        S683   1.806       .  S
C680        C681   1.403       .  A
C681        C682   1.400       .  A
C681        H688   1.083       .  S
C682        S684   1.809       .  S
S683        H686   1.406       .  S
S684        H685   1.407       .  S
C689        C690   1.406       .  A
C689        C694   1.422       .  A
C690        C691   1.390   1_566  A
C690        H699   1.083   1_556  S
C691        C692   1.421   1_554  A
C691        S695   1.812       .  S
C692        C693   1.411       .  A
C693        C694   1.410   1_545  A
C693        H700   1.078       .  S
C694        S696   1.798       .  S
S695        H698   1.407   1_545  S
S696        H697   1.408       .  S
C701        C702   1.402       .  A
C701        C706   1.420       .  A
C702        C703   1.402       .  A
C702        H711   1.080       .  S
C703        C704   1.414       .  A
C703        S707   1.805       .  S
C704        C705   1.400       .  A
C705        C706   1.402       .  A
C705        H712   1.084       .  S
C706        S708   1.805       .  S
S707        H710   1.407       .  S
S708        H709   1.407       .  S
C713        C714   1.404       .  A
C713        C718   1.421       .  A
C714        C715   1.403       .  A
C714        H723   1.084       .  S
C715        C716   1.416       .  A
C715        S719   1.801       .  S
C716        C717   1.401       .  A
C717        C718   1.399       .  A
C717        H724   1.084       .  S
C718        S720   1.806       .  S
S719        H722   1.408       .  S
S720        H721   1.393       .  S
C725        C726   1.402       .  A
C725        C730   1.422       .  A
C726        C727   1.400       .  A
C726        H735   1.077       .  S
C727        C728   1.413       .  A
C727        S731   1.805       .  S
C728        C729   1.400       .  A
C729        C730   1.404       .  A
C729        H736   1.084       .  S
C730        S732   1.804       .  S
S731        H734   1.406       .  S
S732        H733   1.408       .  S
C737        C738   1.404       .  A
C737        C742   1.410       .  A
C738        C739   1.400       .  A
C738        H747   1.084       .  S
C739        C740   1.415       .  A
C739        S743   1.798       .  S
C740        C741   1.413       .  A
C741        C742   1.405       .  A
C741        H748   1.083       .  S
C742        S744   1.802       .  S
S743        H746   1.403       .  S
S744        H745   1.406       .  S
C749        C750   1.402   1_554  A
C749        C754   1.415       .  A
C750        C751   1.403       .  A
C750        H759   1.083       .  S
C751        C752   1.411       .  A
C751        S755   1.801       .  S
C752        C753   1.403   1_556  A
C753        C754   1.404       .  A
C753        H760   1.082       .  S
C754        S756   1.801       .  S
S755        H758   1.406       .  S
S756        H757   1.405       .  S
C761        C762   1.409   1_554  A
C761        C766   1.422       .  A
C762        C763   1.402       .  A
C762        H771   1.082       .  S
C763        C764   1.422   1_456  A
C763        S767   1.807   1_455  S
C764        C765   1.409       .  A
C765        C766   1.402   1_655  A
C765        H772   1.082       .  S
C766        S768   1.806       .  S
S767        H770   1.402       .  S
S768        H769   1.403       .  S
C773        C774   1.410       .  A
C773        C778   1.416       .  A
C774        C775   1.403       .  A
C774        H783   1.083       .  S
C775        C776   1.411       .  A
C775        S779   1.802       .  S
C776        C777   1.405       .  A
C777        C778   1.407       .  A
C777        H784   1.083       .  S
C778        S780   1.806       .  S
S779        H782   1.407       .  S
S780        H781   1.406       .  S
C785        C786   1.402       .  A
C785        C790   1.420       .  A
C786        C787   1.397       .  A
C786        H795   1.078       .  S
C787        C788   1.413       .  A
C787        S791   1.805       .  S
C788        C789   1.401       .  A
C789        C790   1.402       .  A
C789        H796   1.084       .  S
C790        S792   1.805       .  S
S791        H794   1.406       .  S
S792        H793   1.408       .  S
C797        C798   1.406       .  A
C797        C802   1.422   1_554  A
C798        C799   1.400       .  A
C798        H807   1.083       .  S
C799        C800   1.414       .  A
C799        S803   1.803       .  S
C800        C801   1.403   1_554  A
C801        C802   1.412       .  A
C801        H808   1.083       .  S
C802        S804   1.806       .  S
S803        H806   1.407       .  S
S804        H805   1.407       .  S
C809        C810   1.406       .  A
C809        C814   1.413       .  A
C810        C811   1.405       .  A
C810        H819   1.083       .  S
C811        C812   1.417       .  A
C811        S815   1.800       .  S
C812        C813   1.411       .  A
C813        C814   1.400       .  A
C813        H820   1.084       .  S
C814        S816   1.799       .  S
S815        H818   1.407       .  S
S816        H817   1.407       .  S
C821        C822   1.399       .  A
C821        C826   1.415       .  A
C822        C823   1.396       .  A
C822        H831   1.082       .  S
C823        C824   1.411       .  A
C823        S827   1.803       .  S
C824        C825   1.405       .  A
C825        C826   1.401       .  A
C825        H832   1.084       .  S
C826        S828   1.808       .  S
S827        H830   1.407       .  S
S828        H829   1.402       .  S
C833        C834   1.405   1_554  A
C833        C838   1.416       .  A
C834        C835   1.401       .  A
C834        H843   1.084       .  S
C835        C836   1.413   1_556  A
C835        S839   1.804       .  S
C836        C837   1.401       .  A
C837        C838   1.405       .  A
C837        H844   1.084       .  S
C838        S840   1.797       .  S
S839        H842   1.404       .  S
S840        H841   1.405       .  S
C845        C846   1.409       .  A
C845        C850   1.420   1_556  A
C846        C847   1.402   1_545  A
C846        H855   1.083       .  S
C847        C848   1.420       .  A
C847        S851   1.804       .  S
C848        C849   1.410   1_556  A
C849        C850   1.401   1_565  A
C849        H856   1.083       .  S
C850        S852   1.807       .  S
S851        H854   1.402       .  S
S852        H853   1.404       .  S
C857        C858   1.411       .  A
C857        C862   1.418       .  A
C858        C859   1.401       .  A
C858        H867   1.083       .  S
C859        C860   1.408       .  A
C859        S863   1.802       .  S
C860        C861   1.403       .  A
C861        C862   1.404       .  A
C861        H868   1.083       .  S
C862        S864   1.807       .  S
S863        H866   1.407       .  S
S864        H865   1.407       .  S
C869        C870   1.408       .  A
C869        C874   1.415       .  A
C870        C871   1.401       .  A
C870        H879   1.084       .  S
C871        C872   1.414       .  A
C871        S875   1.800       .  S
C872        C873   1.407       .  A
C873        C874   1.400       .  A
C873        H880   1.083       .  S
C874        S876   1.799       .  S
S875        H878   1.406   1_554  S
S876        H877   1.407       .  S
