geometry optimzed in LAMMPS
_audit_creation_date              2020-11-30 
_audit_creation_method            'lammps2cif' 
_symmetry_space_group_name_H-M    'P1' 
_symmetry_Int_Tables_number       1 
_symmetry_cell_setting            triclinic 
loop_ 
_symmetry_equiv_pos_as_xyz 
  x,y,z 
_cell_length_a                    34.36746065 
_cell_length_b                    34.32098273080716 
_cell_length_c                    34.81808230432407 
_cell_angle_alpha                 88.78305195247613 
_cell_angle_beta                  88.75096803025399 
_cell_angle_gamma                 91.1985556757311 
loop_ 
_atom_site_label 
_atom_site_type_symbol 
_atom_site_fract_x 
_atom_site_fract_y 
_atom_site_fract_z 
_atom_site_charge 
O1          O  0.53736281  0.06032481  0.85598774    -0.80700
O2          O  0.53085376  0.05676658  0.63591920    -0.82300
O3          O  0.61342286  0.04895628  0.73766945    -0.79300
O4          O  0.52364732  0.13672201  0.75162189    -0.77700
O5          O  0.45690954  0.13530092  0.75293577    -0.79500
O6          O  0.61290237  0.98218246  0.74231378    -0.80400
O7          O  0.56069029  0.09578024  0.67947093    -0.81700
O8          O  0.57243957  0.09025073  0.80642443    -0.82000
Eu9        Eu  0.54571306  0.06945617  0.74509746     2.39200
O10         O  0.48949268  0.06660907  0.70831856    -0.89500
O11         O  0.54656239  0.01446442  0.78679525    -0.93100
C12         C  0.56443656  0.08366729  0.84238837     1.01600
C13         C  0.55278713  0.08604906  0.64474318     1.01400
C14         C  0.63022966  0.01569236  0.73768232     1.01300
C15         C  0.49032481  0.15320379  0.75441948     0.99200
H16         H  0.56795505  0.01202774  0.69153914     0.28900
O17         O  0.54590209  0.01191962  0.70917585    -1.01900
H18         H  0.49066362  0.09104759  0.80291635     0.29000
O19         O  0.49073555  0.06838294  0.78697405    -1.04500
O20         O  0.44551570  0.96041894  0.64540900    -0.81700
O21         O  0.44344082  0.97096969  0.86310377    -0.81200
O22         O  0.56495612  0.92909610  0.68939237    -0.79700
O23         O  0.41463052  0.08998927  0.68610833    -0.83000
O24         O  0.40675262  0.08395736  0.81246323    -0.80800
O25         O  0.57477794  0.94039489  0.81372200    -0.79500
O26         O  0.45766972  0.88748683  0.76309758    -0.81000
O27         O  0.36772650  0.97460348  0.74673651    -0.82900
O28         O  0.52437611  0.88901578  0.76214867    -0.79700
O29         O  0.36712997  0.04144423  0.74533581    -0.82400
O30         O  0.53351570  0.96186259  0.64190301    -0.78100
O31         O  0.53989618  0.97134913  0.85981397    -0.78100
O32         O  0.44311905  0.05508247  0.85857739    -0.77800
O33         O  0.44456907  0.05336258  0.64089129    -0.81300
O34         O  0.41586275  0.92505872  0.69425622    -0.80700
O35         O  0.40675499  0.93975777  0.81842726    -0.79000
Eu36       Eu  0.48980646  0.00909837  0.67240945     2.39800
Eu37       Eu  0.49159733  0.01335497  0.82824197     2.39600
Eu38       Eu  0.54629615  0.95706582  0.75135975     2.38400
Eu39       Eu  0.43447513  0.06643334  0.74961411     2.39900
Eu40       Eu  0.43510626  0.95445451  0.75459037     2.39800
O41         O  0.43562321  0.01134562  0.79065489    -0.93400
O42         O  0.49040787  0.95420776  0.71395002    -0.92300
C43         C  0.42269692  0.93252911  0.65831164     1.01700
C44         C  0.41486347  0.94860573  0.85316421     1.00500
C45         C  0.55689143  0.93531604  0.65379822     0.99800
C46         C  0.42139628  0.08059840  0.65089114     1.01900
C47         C  0.41481685  0.07672234  0.84787354     1.00800
C48         C  0.56753131  0.94866217  0.84916913     0.99600
C49         C  0.49101859  0.87116403  0.76562459     0.99700
C50         C  0.35047848  0.00747218  0.74341631     1.02300
H51         H  0.49111330  0.93438664  0.81058475     0.29700
O52         O  0.49102513  0.95623889  0.79266265    -1.05600
H53         H  0.41242942  0.00827302  0.69665007     0.31700
O54         O  0.43474107  0.00934533  0.71298956    -1.08200
C55         C  0.68752960  0.20768296  0.49322086     0.85900
C56         C  0.66780354  0.18780581  0.52888144    -0.54300
C57         C  0.62831611  0.18367879  0.52657919     0.08800
C58         C  0.61153426  0.20165424  0.48961898     0.19800
C59         C  0.67336787  0.18458664  0.45898014    -0.55100
C60         C  0.63381395  0.18152223  0.45693226     0.08900
C61         C  0.66669102  0.24662941  0.49050311    -0.54600
C62         C  0.62734821  0.24408902  0.48803942     0.09500
H63         H  0.68324110  0.17741359  0.55377837     0.14000
H64         H  0.57938587  0.19860103  0.48825338    -0.00200
H65         H  0.69294846  0.17095089  0.43862721     0.14300
H66         H  0.68166283  0.27472583  0.49182825     0.14100
O67         O  0.53948948  0.05140232  0.35880018    -0.80700
O68         O  0.54025216  0.04838097  0.13963819    -0.82300
O69         O  0.61671747  0.03964002  0.25363813    -0.79300
O70         O  0.52751278  0.12951872  0.23994607    -0.77700
O71         O  0.46115353  0.12763379  0.24644581    -0.79500
O72         O  0.61678315  0.97301445  0.25005045    -0.80400
O73         O  0.57622856  0.07981557  0.18421177    -0.81700
O74         O  0.57002733  0.08758804  0.31103842    -0.82000
Eu75       Eu  0.54973556  0.06217106  0.24874634     2.39200
O76         O  0.49252264  0.06221636  0.21300862    -0.89500
O77         O  0.54995929  0.00559141  0.28809455    -0.93100
C78         C  0.56260152  0.07931773  0.34691571     1.01600
C79         C  0.56898917  0.07090815  0.14920215     1.01400
C80         C  0.63385236  0.00657445  0.25345595     1.01300
C81         C  0.49387802  0.14563995  0.23956646     0.99200
H82         H  0.57081433  0.00616125  0.19375340     0.28900
O83         O  0.54800391  0.00662909  0.21037236    -1.01900
H84         H  0.49562674  0.08409472  0.30608195     0.29000
O85         O  0.49526645  0.06092678  0.29088426    -1.04500
O86         O  0.44149102  0.96292718  0.14679559    -0.81700
O87         O  0.45131853  0.95651464  0.36320063    -0.81200
O88         O  0.56767006  0.92957390  0.18499398    -0.79700
O89         O  0.41111902  0.08169735  0.19416250    -0.83000
O90         O  0.42090784  0.08540806  0.31911776    -0.80800
O91         O  0.57097211  0.92481641  0.31134908    -0.79500
O92         O  0.45983261  0.88180333  0.24289105    -0.81000
O93         O  0.37050165  0.97088205  0.26653604    -0.82900
O94         O  0.52645008  0.88248413  0.24233138    -0.79700
O95         O  0.37135164  0.03767886  0.26737175    -0.82400
O96         O  0.53107997  0.96057393  0.14053168    -0.78100
O97         O  0.54207124  0.95954387  0.35935723    -0.78100
O98         O  0.45233888  0.04937833  0.36459582    -0.77800
O99         O  0.44514048  0.05305325  0.14547468    -0.81300
O100        O  0.40742858  0.92959405  0.19425778    -0.80700
O101        O  0.42010556  0.91996324  0.31832392    -0.79000
Eu102      Eu  0.49054817  0.00707467  0.17436954     2.39800
Eu103      Eu  0.49539294  0.00402140  0.33005488     2.39600
Eu104      Eu  0.54849537  0.95028136  0.24945764     2.38400
Eu105      Eu  0.43830647  0.06025858  0.25547819     2.39900
Eu106      Eu  0.43707943  0.94826103  0.25497304     2.39800
O107        O  0.43864034  0.00339228  0.29405191    -0.93400
O108        O  0.49160004  0.95078140  0.21349436    -0.92300
C109        C  0.41430130  0.93857846  0.15857182     1.01700
C110        C  0.42807171  0.92872852  0.35312620     1.00500
C111        C  0.55723464  0.93609461  0.15008544     0.99800
C112        C  0.41896161  0.07621312  0.15828381     1.01900
C113        C  0.42915754  0.07669190  0.35420742     1.00800
C114        C  0.56509293  0.93314048  0.34692496     0.99600
C115        C  0.49305721  0.86526051  0.23878605     0.99700
C116        C  0.35408370  0.00410205  0.27041747     1.02300
H117        H  0.49464964  0.92439092  0.30695609     0.29700
O118        O  0.49400829  0.94804141  0.29145308    -1.05600
H119        H  0.41186209  0.00565146  0.20231370     0.31700
O120        O  0.43575146  0.00533571  0.21642767    -1.08200
C121        C  0.29797938  0.81010375  0.00558168     0.85900
C122        C  0.31441471  0.82861064  0.96771469    -0.54300
C123        C  0.31788283  0.86820521  0.96782580     0.08800
C124        C  0.30124374  0.88650486  0.00468002     0.19800
C125        C  0.32353711  0.82756707  0.03681900    -0.55100
C126        C  0.32503077  0.86753799  0.03691135     0.08900
C127        C  0.25873906  0.82905848  0.01022826    -0.54600
C128        C  0.25969154  0.86859502  0.01008425     0.09500
H129        H  0.32364438  0.81296731  0.94265760     0.14000
H130        H  0.30176952  0.91871394  0.00383220    -0.00200
H131        H  0.33856537  0.80968101  0.05764262     0.14300
H132        H  0.23169139  0.81214133  0.01320649     0.14100
C133        C  0.68411457  0.80972601  0.99853143     0.85900
C134        C  0.65459864  0.82001264  0.03047407    -0.54300
C135        C  0.64907800  0.85884003  0.03429982     0.08800
C136        C  0.67209357  0.88445245  0.00423820     0.19800
C137        C  0.66575449  0.82850927  0.96271291    -0.55100
C138        C  0.66039267  0.86809419  0.96479337     0.08900
C139        C  0.72068542  0.83433424  0.00623560    -0.54600
C140        C  0.71463250  0.87305928  0.00930840     0.09500
H141        H  0.63732196  0.79864747  0.04708810     0.14000
H142        H  0.66794031  0.91618548  0.00743946    -0.00200
H143        H  0.65475464  0.81155447  0.93928951     0.14300
H144        H  0.74944700  0.82202292  0.00858300     0.14100
C145        C  0.68434379  0.80709943  0.50496687     0.85900
C146        C  0.67585280  0.83156174  0.46844518    -0.54300
C147        C  0.63834362  0.84360575  0.46606309     0.08800
C148        C  0.61184360  0.82835399  0.49954551     0.19800
C149        C  0.66948623  0.83112266  0.53899038    -0.55100
C150        C  0.63174124  0.84253445  0.53608503     0.08900
C151        C  0.65470375  0.77296498  0.50265809    -0.54600
C152        C  0.61707863  0.78400990  0.49923479     0.09500
H153        H  0.69740325  0.83703881  0.44569181     0.14000
H154        H  0.58101591  0.83712077  0.49744447    -0.00200
H155        H  0.68747386  0.83880468  0.56306447     0.14300
H156        H  0.66214256  0.74263709  0.49992094     0.14100
C157        C  0.29696769  0.20217788  0.00717405     0.85900
C158        C  0.31647966  0.18782444  0.04355877    -0.54300
C159        C  0.32217678  0.14874456  0.04497374     0.08800
C160        C  0.30821918  0.12692853  0.00890173     0.19800
C161        C  0.32378128  0.18737147  0.97413553    -0.55100
C162        C  0.32985695  0.14784870  0.97501897     0.08900
C163        C  0.26009352  0.17697614  0.00395754    -0.54600
C164        C  0.26528060  0.13758529  0.00346776     0.09500
H165        H  0.32631193  0.20721485  0.06580322     0.14000
H166        H  0.31270581  0.09541943  0.00990915    -0.00200
H167        H  0.33620946  0.20546298  0.95106559     0.14300
H168        H  0.23184512  0.19006411  0.00056609     0.14100
C169        C  0.69388142  0.20095388  0.99791056     0.85900
C170        C  0.66617256  0.19391214  0.96431057    -0.54300
C171        C  0.65823686  0.15534810  0.95778871     0.08800
C172        C  0.67926305  0.12735506  0.98533091     0.19800
C173        C  0.67513106  0.17863183  0.03224439    -0.55100
C174        C  0.66657209  0.14032493  0.02591211     0.08900
C175        C  0.72964807  0.17794174  0.98590003    -0.54600
C176        C  0.72274729  0.13938596  0.98001664     0.09500
H177        H  0.65602465  0.21729499  0.94599984     0.14000
H178        H  0.67322383  0.09621887  0.97994424    -0.00200
H179        H  0.66755145  0.19266577  0.05898994     0.14300
H180        H  0.75821399  0.19123101  0.98078869     0.14100
C181        C  0.29756700  0.20779013  0.49633466     0.85900
C182        C  0.31363225  0.18533483  0.46191302    -0.54300
C183        C  0.35208133  0.17606141  0.46424272     0.08800
C184        C  0.37174750  0.19201130  0.50040598     0.19800
C185        C  0.30826901  0.18328459  0.53220918    -0.55100
C186        C  0.34691154  0.17485477  0.53408657     0.08900
C187        C  0.32477676  0.24381425  0.49905526    -0.54600
C188        C  0.36335589  0.23589814  0.50150929     0.09500
H189        H  0.29565752  0.17671803  0.43817282     0.14000
H190        H  0.40304835  0.18509791  0.50246206    -0.00200
H191        H  0.28707282  0.17289995  0.55376546     0.14300
H192        H  0.31469112  0.27318028  0.50317121     0.14100
C193        C  0.28880373  0.82065816  0.50778302     0.85900
C194        C  0.30739712  0.84393401  0.53991560    -0.54300
C195        C  0.34717792  0.84278851  0.54039315     0.08800
C196        C  0.36483459  0.81818881  0.50807837     0.19800
C197        C  0.30875095  0.83721704  0.47084329    -0.55100
C198        C  0.34837193  0.83651166  0.47105595     0.08900
C199        C  0.30478023  0.77970348  0.51107725    -0.54600
C200        C  0.34402605  0.77809174  0.51241273     0.09500
H201        H  0.29048880  0.86080042  0.56006247     0.14000
H202        H  0.39684342  0.81602088  0.50836472    -0.00200
H203        H  0.29415638  0.84979467  0.44649754     0.14300
H204        H  0.28630290  0.75356498  0.51212449     0.14100
O205        O  0.86431128  0.75817255  0.53265513    -0.80700
O206        O  0.02452784  0.75447037  0.37710358    -0.82300
O207        O  0.91030958  0.82066412  0.41907364    -0.79300
O208        O  0.91175576  0.69269521  0.42371093    -0.77700
O209        O  0.94970175  0.64649883  0.45202861    -0.79500
O210        O  0.93830544  0.86815403  0.45467534    -0.80400
O211        O  0.95819227  0.75029500  0.37663842    -0.81700
O212        O  0.86517864  0.76216464  0.46683304    -0.82000
Eu213      Eu  0.93326586  0.75749867  0.44332823     2.39200
O214        O  0.99066315  0.72166242  0.44424446    -0.89500
O215        O  0.93170361  0.79454040  0.49916395    -0.93100
C216        C  0.84772117  0.76261073  0.50007688     1.01600
C217        C  0.99213319  0.74870221  0.35993542     1.01400
C218        C  0.91554821  0.85675720  0.42799312     1.01300
C219        C  0.92236060  0.65725537  0.42955117     0.99200
H220        H  0.98651688  0.81687745  0.41975141     0.28900
O221        O  0.98709136  0.80083934  0.44284746    -1.01900
H222        H  0.91093138  0.69863968  0.49740340     0.29000
O223        O  0.93364189  0.71563221  0.49779714    -1.04500
O224        O  0.11012630  0.77933758  0.46589946    -0.81700
O225        O  0.95355134  0.74152126  0.61955237    -0.81200
O226        O  0.02731105  0.87510826  0.44994992    -0.79700
O227        O  0.03949943  0.65296797  0.45339955    -0.83000
O228        O  0.94354603  0.64178884  0.53997868    -0.80800
O229        O  0.93736326  0.86459906  0.54594224    -0.79500
O230        O  0.05878412  0.82515324  0.57914816    -0.81000
O231        O  0.07373362  0.69906862  0.57092924    -0.82900
O232        O  0.02867610  0.87241035  0.54371694    -0.79700
O233        O  0.04071357  0.65044640  0.54104162    -0.82400
O234        O  0.06032604  0.82991662  0.41590646    -0.78100
O235        O  0.90950872  0.81354922  0.58117947    -0.78100
O236        O  0.90614508  0.68652868  0.56999947    -0.77800
O237        O  0.07463658  0.70371892  0.42483215    -0.81300
O238        O  0.10730817  0.77656750  0.53142279    -0.80700
O239        O  0.01987317  0.74814819  0.61898005    -0.79000
Eu240      Eu  0.04448557  0.76482749  0.44334216     2.39800
Eu241      Eu  0.93147777  0.75264634  0.55360494     2.39600
Eu242      Eu  0.98487217  0.83891496  0.49877100     2.38400
Eu243      Eu  0.99147813  0.67936833  0.49834727     2.39900
Eu244      Eu  0.04188727  0.76077012  0.55317758     2.39800
O245        O  0.98867364  0.71661499  0.55394334    -0.93400
O246        O  0.04167249  0.80240875  0.49870859    -0.92300
C247        C  0.12529856  0.78310748  0.49917665     1.01700
C248        C  0.98690636  0.74035485  0.63582553     1.00500
C249        C  0.05104589  0.86550720  0.42238054     0.99800
C250        C  0.06704745  0.66716024  0.43119411     1.01900
C251        C  0.91463101  0.65096768  0.56226052     1.00800
C252        C  0.91492258  0.85014788  0.57325682     0.99600
C253        C  0.05151501  0.86105702  0.57062261     0.99700
C254        C  0.06779995  0.66271052  0.56346123     1.02300
H255        H  0.98407074  0.81155757  0.57716184     0.29700
O256        O  0.98485942  0.79684080  0.55383171    -1.05600
H257        H  0.06975239  0.70959574  0.49774150     0.31700
O258        O  0.04549248  0.72326485  0.49786849    -1.08200
O259        O  0.86868983  0.24355965  0.53558836    -0.80700
O260        O  0.02738837  0.26807259  0.37856129    -0.82300
O261        O  0.90901844  0.32202596  0.43038894    -0.79300
O262        O  0.91803566  0.19379583  0.41930119    -0.77700
O263        O  0.95009678  0.14557558  0.45142531    -0.79500
O264        O  0.94355100  0.36927114  0.46060594    -0.80400
O265        O  0.96073099  0.26492542  0.37995848    -0.81700
O266        O  0.87052606  0.24861781  0.46985066    -0.82000
Eu267      Eu  0.93717315  0.25749571  0.44644109     2.39200
O268        O  0.99315366  0.21967189  0.44515605    -0.89500
O269        O  0.93676933  0.29393179  0.50255129    -0.93100
C270        C  0.85258408  0.24359961  0.50243020     1.01600
C271        C  0.99399630  0.26846017  0.36230241     1.01400
C272        C  0.91584523  0.35822566  0.43851622     1.01300
C273        C  0.92659515  0.15766751  0.42542874     0.99200
H274        H  0.99267356  0.31726114  0.42358718     0.28900
O275        O  0.99252742  0.29949764  0.44550553    -1.01900
H276        H  0.91442358  0.19671200  0.50065637     0.29000
O277        O  0.93649908  0.21458851  0.50070388    -1.04500
O278        O  0.11592491  0.25328492  0.46666112    -0.81700
O279        O  0.95701102  0.26244990  0.62329425    -0.81200
O280        O  0.04156346  0.37150103  0.46038755    -0.79700
O281        O  0.03717061  0.14896373  0.45064416    -0.83000
O282        O  0.95206065  0.14080383  0.54763662    -0.80800
O283        O  0.94326694  0.36394732  0.54578075    -0.79500
O284        O  0.07185674  0.31981618  0.57504798    -0.81000
O285        O  0.06665124  0.19223104  0.57847214    -0.82900
O286        O  0.03530449  0.36756570  0.54734692    -0.79700
O287        O  0.03820146  0.14516789  0.54246137    -0.82400
O288        O  0.07657701  0.32548004  0.42973048    -0.78100
O289        O  0.90867233  0.31450576  0.57636117    -0.78100
O290        O  0.92338777  0.18588560  0.58609557    -0.77800
O291        O  0.06801066  0.19921858  0.41728853    -0.81300
O292        O  0.11535089  0.25006371  0.53250855    -0.80700
O293        O  0.02357876  0.26342714  0.62278305    -0.79000
Eu294      Eu  0.04858439  0.26083272  0.44529367     2.39800
Eu295      Eu  0.93599603  0.25187075  0.55707374     2.39600
Eu296      Eu  0.99159836  0.33642783  0.50141138     2.38400
Eu297      Eu  0.99266241  0.17689914  0.49889443     2.39900
Eu298      Eu  0.04705025  0.25623358  0.55524419     2.39800
O299        O  0.99214495  0.21414537  0.55534864    -0.93400
O300        O  0.04794309  0.29827463  0.50092627    -0.92300
C301        C  0.13272766  0.24891342  0.49923722     1.01700
C302        C  0.98999182  0.26703396  0.63986089     1.00500
C303        C  0.06986165  0.36115390  0.43786695     0.99800
C304        C  0.06033783  0.16271427  0.42365554     1.01900
C305        C  0.93156614  0.15044230  0.57738487     1.00800
C306        C  0.91620756  0.35107766  0.56931258     0.99600
C307        C  0.06231065  0.35559383  0.56965575     0.99700
C308        C  0.06106329  0.15641803  0.56916808     1.02300
H309        H  0.99042212  0.31076282  0.57722563     0.29700
O310        O  0.99092412  0.29412637  0.55523683    -1.05600
H311        H  0.06992596  0.20213948  0.49861422     0.31700
O312        O  0.04750852  0.21860206  0.49934389    -1.08200
C313        C  0.79371813  0.49743262  0.70155818     0.85900
C314        C  0.81519303  0.46247624  0.68551834    -0.54300
C315        C  0.81637089  0.46121067  0.64638544     0.08800
C316        C  0.79573870  0.49553246  0.62622987     0.19800
C317        C  0.81498635  0.53286792  0.68163033    -0.55100
C318        C  0.81577329  0.53242231  0.64224557     0.08900
C319        C  0.75379471  0.49677653  0.68314832    -0.54600
C320        C  0.75388928  0.49510294  0.64411686     0.09500
H321        H  0.82947422  0.44119455  0.70361817     0.14000
H322        H  0.79698302  0.49475880  0.59445813    -0.00200
H323        H  0.82929792  0.55629245  0.69638972     0.14300
H324        H  0.72697405  0.49703112  0.70026193     0.14100
C325        C  0.18044810  0.51132647  0.70116609     0.85900
C326        C  0.16178741  0.54623859  0.68096738    -0.54300
C327        C  0.15659730  0.54187170  0.64239393     0.08800
C328        C  0.17095510  0.50219545  0.62745303     0.19800
C329        C  0.15408643  0.47564732  0.69085858    -0.55100
C330        C  0.14848861  0.47153254  0.65235948     0.08900
C331        C  0.21791147  0.50464568  0.67808034    -0.54600
C332        C  0.21367127  0.49719838  0.64009060     0.09500
H333        H  0.15257048  0.57189186  0.69615867     0.14000
H334        H  0.16660226  0.49916447  0.59628950    -0.00200
H335        H  0.14361198  0.45343179  0.71108648     0.14300
H336        H  0.24583396  0.50511053  0.69172912     0.14100
C337        C  0.79879910  0.00922223  0.29200825     0.85900
C338        C  0.80770232  0.97435846  0.31845223    -0.54300
C339        C  0.84549332  0.97262147  0.32907979     0.08800
C340        C  0.87136882  0.00646179  0.31312155     0.19800
C341        C  0.81326857  0.04567870  0.31330547    -0.55100
C342        C  0.85064584  0.04382674  0.32652497     0.08900
C343        C  0.82846885  0.00677599  0.25845689    -0.54600
C344        C  0.86612763  0.00494040  0.26934036     0.09500
H345        H  0.78548166  0.95352159  0.32875266     0.14000
H346        H  0.90211907  0.00410539  0.32174840    -0.00200
H347        H  0.79515257  0.07075169  0.31663472     0.14300
H348        H  0.82160495  0.00762392  0.22826778     0.14100
C349        C  0.79607997  0.00373204  0.70265701     0.85900
C350        C  0.81848266  0.03800257  0.68307373    -0.54300
C351        C  0.85734615  0.03178196  0.67730196     0.08800
C352        C  0.87090376  0.99194460  0.69438255     0.19800
C353        C  0.80626419  0.96775692  0.67886047    -0.55100
C354        C  0.84532718  0.96163538  0.67439924     0.08900
C355        C  0.81787741  0.99924537  0.74034093    -0.54600
C356        C  0.85568801  0.98912926  0.73680199     0.09500
H357        H  0.80495621  0.06452259  0.67311268     0.14000
H358        H  0.90255733  0.98761728  0.69013489    -0.00200
H359        H  0.78433657  0.94911393  0.66614851     0.14300
H360        H  0.80417003  0.00272757  0.76837041     0.14100
C361        C  0.79341155  0.50728312  0.30678006     0.85900
C362        C  0.82285888  0.53881821  0.31931802    -0.54300
C363        C  0.82608535  0.54144316  0.35820082     0.08800
C364        C  0.80144706  0.51107089  0.38134312     0.19800
C365        C  0.80956337  0.46980521  0.32588258    -0.55100
C366        C  0.81395421  0.47171408  0.36487782     0.08900
C367        C  0.75549970  0.51453845  0.32945755    -0.54600
C368        C  0.75943775  0.51765087  0.36813936     0.09500
H369        H  0.83909342  0.55796124  0.29923410     0.14000
H370        H  0.80512172  0.51300124  0.41286583    -0.00200
H371        H  0.82155274  0.44580712  0.31022892     0.14300
H372        H  0.72761157  0.51731737  0.31566036     0.14100
C373        C  0.18544871  0.51451017  0.30110350     0.85900
C374        C  0.16805551  0.48015262  0.32442854    -0.54300
C375        C  0.16566876  0.48513413  0.36339698     0.08800
C376        C  0.18186834  0.52581730  0.37512850     0.19800
C377        C  0.16102979  0.54980059  0.31266615    -0.55100
C378        C  0.15817120  0.55474989  0.35144947     0.08900
C379        C  0.22485291  0.52309771  0.31928842    -0.54600
C380        C  0.22357027  0.53079070  0.35743611     0.09500
H381        H  0.15677071  0.45444584  0.31041355     0.14000
H382        H  0.18050165  0.53130137  0.40615480    -0.00200
H383        H  0.14851982  0.57021736  0.29255340     0.14300
H384        H  0.25189281  0.52383690  0.30271227     0.14100
C385        C  0.18736009  0.01412627  0.29824004     0.85900
C386        C  0.17360498  0.04688988  0.32413461    -0.54300
C387        C  0.13405716  0.04973323  0.32668545     0.08800
C388        C  0.11148359  0.02019829  0.30172429     0.19800
C389        C  0.16571527  0.97731685  0.31336568    -0.55100
C390        C  0.12611755  0.98005032  0.31596573     0.08900
C391        C  0.16872419  0.02514303  0.26017668    -0.54600
C392        C  0.12912384  0.02648333  0.26024954     0.09500
H393        H  0.19309231  0.06646402  0.33896543     0.14000
H394        H  0.07951586  0.02238699  0.30432842    -0.00200
H395        H  0.18109235  0.95223213  0.32431038     0.14300
H396        H  0.18608034  0.03366021  0.23486069     0.14100
C397        C  0.18906522  0.00481022  0.69439929     0.85900
C398        C  0.17303205  0.96973044  0.67242342    -0.54300
C399        C  0.13462135  0.97266995  0.66325706     0.08800
C400        C  0.11521692  0.00976894  0.67878998     0.19800
C401        C  0.17894277  0.04105429  0.67007820    -0.55100
C402        C  0.14048698  0.04306875  0.66173444     0.08900
C403        C  0.16145596  0.00474154  0.72957404    -0.54600
C404        C  0.12312397  0.01104554  0.72248134     0.09500
H405        H  0.19003710  0.94455961  0.66524022     0.14000
H406        H  0.08471791  0.01204295  0.67016840    -0.00200
H407        H  0.20037143  0.06282081  0.65992445     0.14300
H408        H  0.17180279  0.00035994  0.75851310     0.14100
O409        O  0.73581185  0.62992324  0.96942622    -0.80700
O410        O  0.74631104  0.47275931  0.12581385    -0.82300
O411        O  0.67810697  0.58168212  0.08247914    -0.79300
O412        O  0.80463759  0.58322061  0.08078965    -0.77700
O413        O  0.85188954  0.54800876  0.05067990    -0.79500
O414        O  0.63013838  0.55401776  0.04631630    -0.80400
O415        O  0.74943086  0.53899556  0.12511079    -0.81700
O416        O  0.73740353  0.62881711  0.03477047    -0.79600
Eu417      Eu  0.74125047  0.56134805  0.05796050     2.39200
O418        O  0.77847571  0.50541754  0.05815807    -0.89500
O419        O  0.70318253  0.56221770  0.00249633    -0.93100
C420        C  0.73343923  0.64667618  0.00226191     1.01600
C421        C  0.75194115  0.50548741  0.14246923     1.01400
C422        C  0.64233370  0.57603476  0.07347857     1.01300
C423        C  0.84025217  0.57369629  0.07464728     0.99200
H424        H  0.68264842  0.50763536  0.08099043     0.28900
O425        O  0.69874352  0.50708460  0.05799349    -1.01900
H426        H  0.79880444  0.58624064  0.00385143     0.29000
O427        O  0.78259002  0.56294233  0.00336958    -1.04500
O428        O  0.72860084  0.38341256  0.04214338    -0.81700
O429        O  0.75603233  0.53933905  0.88239040    -0.81200
O430        O  0.62552601  0.46608297  0.05029994    -0.79700
O431        O  0.84852740  0.45919099  0.04901619    -0.83000
O432        O  0.85379221  0.55629828  0.96098263    -0.80800
O433        O  0.63365744  0.55438797  0.95454143    -0.79500
O434        O  0.67745101  0.43134732  0.92167971    -0.81000
O435        O  0.80298948  0.42566072  0.92963367    -0.82900
O436        O  0.62954793  0.46380915  0.95374349    -0.79700
O437        O  0.85090647  0.46070809  0.95930920    -0.82400
O438        O  0.67033039  0.43483006  0.08658696    -0.78100
O439        O  0.68418493  0.58316882  0.91953441    -0.78100
O440        O  0.80788245  0.59055985  0.92937366    -0.77800
O441        O  0.79903416  0.42501612  0.08035966    -0.81300
O442        O  0.72905055  0.38320870  0.97632372    -0.80700
O443        O  0.75154497  0.47282481  0.88410783    -0.79000
Eu444      Eu  0.73630410  0.45099377  0.06001002     2.39800
Eu445      Eu  0.74451574  0.56257731  0.94802436     2.39600
Eu446      Eu  0.66057664  0.50768309  0.00174442     2.38400
Eu447      Eu  0.82006061  0.50611241  0.00378118     2.39900
Eu448      Eu  0.73965561  0.45031773  0.95039339     2.39800
O449        O  0.78130455  0.50582592  0.94935946    -0.93400
O450        O  0.69783651  0.45088326  0.00464574    -0.92300
C451        C  0.72572549  0.36635592  0.00983198     1.01700
C452        C  0.75794124  0.50579685  0.86642755     1.00500
C453        C  0.63483177  0.44352321  0.07868066     0.99800
C454        C  0.83547762  0.43285409  0.07331393     1.01900
C455        C  0.84343888  0.58399981  0.93756285     1.00800
C456        C  0.64779096  0.57712209  0.92732212     0.99600
C457        C  0.64144435  0.43978546  0.92781866     0.99700
C458        C  0.83889151  0.43429500  0.93622616     1.02300
H459        H  0.68849800  0.50752591  0.92414512     0.29700
O460        O  0.70291040  0.50723241  0.94762966    -1.05600
H461        H  0.79289730  0.42671275  0.00576625     0.31700
O462        O  0.77799384  0.45024702  0.00530652    -1.08200
O463        O  0.25271557  0.62908989  0.96916707    -0.80700
O464        O  0.22768772  0.46925158  0.12269238    -0.82300
O465        O  0.17802841  0.58676007  0.07442586    -0.79300
O466        O  0.30363005  0.57792746  0.08336235    -0.77700
O467        O  0.35157289  0.54866657  0.04909623    -0.79500
O468        O  0.12966958  0.55360526  0.04425050    -0.80400
O469        O  0.22926163  0.53603137  0.12264963    -0.81700
O470        O  0.25137791  0.62704650  0.03481432    -0.82000
Eu471      Eu  0.24055983  0.55942026  0.05625462     2.39200
O472        O  0.27831610  0.50342881  0.05707226    -0.89500
O473        O  0.20252004  0.56141177  0.00098844    -0.93100
C474        C  0.25628926  0.64504810  0.00212834     1.01600
C475        C  0.22494562  0.50231010  0.13942238     1.01400
C476        C  0.14196983  0.58039075  0.06699678     1.01300
C477        C  0.33980680  0.57110714  0.07626070     0.99200
H478        H  0.18044084  0.50407633  0.07775826     0.28900
O479        O  0.19827968  0.50441270  0.05594025    -1.01900
H480        H  0.30005126  0.58325758  0.00145668     0.29000
O481        O  0.28198043  0.56134633  0.00137638    -1.04500
O482        O  0.24448449  0.38152287  0.03334975    -0.81700
O483        O  0.23454068  0.54350963  0.87876207    -0.81200
O484        O  0.12597411  0.45746525  0.04298732    -0.79700
O485        O  0.34816594  0.45922225  0.04791681    -0.83000
O486        O  0.35441538  0.54799690  0.95292692    -0.80800
O487        O  0.13123503  0.55393834  0.95735615    -0.79500
O488        O  0.17709082  0.42636001  0.92647520    -0.81000
O489        O  0.30532944  0.43424944  0.92089166    -0.82900
O490        O  0.12903428  0.46100867  0.95565166    -0.79700
O491        O  0.35171919  0.46155320  0.95819579    -0.82400
O492        O  0.17109454  0.42110479  0.07359389    -0.78100
O493        O  0.18097981  0.59000558  0.92817598    -0.78100
O494        O  0.30857137  0.57909073  0.91812469    -0.77800
O495        O  0.29853970  0.42896670  0.08305722    -0.81300
O496        O  0.24696867  0.38351456  0.96756117    -0.80700
O497        O  0.23253825  0.47680993  0.87876162    -0.79000
Eu498      Eu  0.23633481  0.44827668  0.05601055     2.39800
Eu499      Eu  0.24362454  0.56270371  0.94598293     2.39600
Eu500      Eu  0.16046523  0.50610585  0.00087749     2.38400
Eu501      Eu  0.31978135  0.50579151  0.00208118     2.39900
Eu502      Eu  0.24060513  0.45187795  0.94556631     2.39800
O503        O  0.28207254  0.50705420  0.94604635    -0.93400
O504        O  0.19891445  0.44987382  0.00030579    -0.92300
C505        C  0.24933142  0.36550853  0.00039634     1.01700
C506        C  0.22943348  0.51062081  0.86198647     1.00500
C507        C  0.13549561  0.42916900  0.06568086     0.99800
C508        C  0.33486887  0.43589482  0.07494215     1.01900
C509        C  0.34426459  0.57077319  0.92486093     1.00800
C510        C  0.14467145  0.58168320  0.93490841     0.99600
C511        C  0.14105368  0.43422706  0.93287424     0.99700
C512        C  0.34112008  0.43976007  0.93054301     1.02300
H513        H  0.18525998  0.50826404  0.92471104     0.29700
O514        O  0.20198071  0.50751317  0.94658601    -1.05600
H515        H  0.29468285  0.42860014  0.00147887     0.31700
O516        O  0.27805019  0.45091068  0.00138370    -1.08200
C517        C  0.99714156  0.70255046  0.79910673     0.85900
C518        C  0.03284447  0.67886750  0.81168724    -0.54300
C519        C  0.03585791  0.67407182  0.85054267     0.08800
C520        C  0.00417032  0.69510750  0.87349896     0.19800
C521        C  0.96232274  0.68191062  0.81975013    -0.55100
C522        C  0.96572496  0.67770596  0.85857874     0.08900
C523        C  0.00341250  0.74107571  0.81947929    -0.54600
C524        C  0.00716151  0.73786528  0.85825484     0.09500
H525        H  0.05550253  0.66894277  0.79268208     0.14000
H526        H  0.00720230  0.69185116  0.90488526    -0.00200
H527        H  0.93772008  0.66983292  0.80458762     0.14300
H528        H  0.00630397  0.76884900  0.80401757     0.14100
C529        C  0.98881128  0.31243308  0.80238725     0.85900
C530        C  0.95249922  0.33332353  0.81815295    -0.54300
C531        C  0.95394189  0.34248153  0.85632728     0.08800
C532        C  0.99050084  0.32645076  0.87610845     0.19800
C533        C  0.02352408  0.33837477  0.81438152    -0.55100
C534        C  0.02424380  0.34546650  0.85276336     0.08900
C535        C  0.98951800  0.27597725  0.82821745    -0.54600
C536        C  0.99203110  0.28265802  0.86655523     0.09500
H537        H  0.92721611  0.33967775  0.80143272     0.14000
H538        H  0.99271175  0.33255676  0.90710457    -0.00200
H539        H  0.04568135  0.34988138  0.79425306     0.14300
H540        H  0.98994321  0.24678070  0.81675031     0.14100
C541        C  0.49940946  0.70544338  0.80293161     0.85900
C542        C  0.46532485  0.68531557  0.82501735    -0.54300
C543        C  0.46872824  0.64596550  0.83025772     0.08800
C544        C  0.50637809  0.62991444  0.81164054     0.19800
C545        C  0.53629784  0.69324996  0.82424832    -0.55100
C546        C  0.53950505  0.65387120  0.82931364     0.08900
C547        C  0.50318767  0.68344332  0.76521509    -0.54600
C548        C  0.50720316  0.64421489  0.76915384     0.09500
H549        H  0.44073008  0.70119346  0.83631902     0.14000
H550        H  0.50935663  0.59810489  0.81577770    -0.00200
H551        H  0.55835557  0.71349542  0.83413328     0.14300
H552        H  0.50494247  0.69793019  0.73719121     0.14100
C553        C  0.49229629  0.69958279  0.20067138     0.85900
C554        C  0.52970397  0.68612532  0.18039695    -0.54300
C555        C  0.53046937  0.64704348  0.17371705     0.08800
C556        C  0.49356797  0.62471141  0.18772060     0.19800
C557        C  0.45908526  0.68467677  0.17492883    -0.55100
C558        C  0.46007728  0.64561356  0.16782029     0.08900
C559        C  0.48739583  0.67358636  0.23685069    -0.54600
C560        C  0.48971315  0.63470815  0.23040275     0.09500
H561        H  0.55321946  0.70610812  0.17129637     0.14000
H562        H  0.49351432  0.59308635  0.18226005    -0.00200
H563        H  0.43592726  0.70236949  0.16393548     0.14300
H564        H  0.48538998  0.68499035  0.26567718     0.14100
C565        C  0.98446870  0.30178046  0.19772744     0.85900
C566        C  0.02104935  0.31947697  0.17731087    -0.54300
C567        C  0.01668897  0.32751157  0.13905077     0.08800
C568        C  0.97626980  0.31533296  0.12410510     0.19800
C569        C  0.95131607  0.32954373  0.18817884    -0.55100
C570        C  0.94709786  0.33640756  0.14983155     0.08900
C571        C  0.97632516  0.26515310  0.17413251    -0.54600
C572        C  0.97095299  0.27186587  0.13592022     0.09500
H573        H  0.04786284  0.32619940  0.19191653     0.14000
H574        H  0.97211671  0.32213088  0.09328096    -0.00200
H575        H  0.93255218  0.34224453  0.20984867     0.14300
H576        H  0.97652214  0.23563970  0.18584277     0.14100
C577        C  0.99216647  0.70527762  0.19638456     0.85900
C578        C  0.95647996  0.68027237  0.18461593    -0.54300
C579        C  0.95448080  0.67341138  0.14588170     0.08800
C580        C  0.98950445  0.69113903  0.12275104     0.19800
C581        C  0.02721923  0.68226053  0.18034530    -0.55100
C582        C  0.02541573  0.67474603  0.14213107     0.08900
C583        C  0.99154549  0.74187305  0.17045118    -0.54600
C584        C  0.98929177  0.73463007  0.13235119     0.09500
H585        H  0.93442661  0.66974864  0.20530919     0.14000
H586        H  0.98969171  0.68523627  0.09157854    -0.00200
H587        H  0.05107101  0.67108863  0.19666808     0.14300
H588        H  0.99121235  0.77126773  0.18145024     0.14100
C589        C  0.49048948  0.31907935  0.79401404     0.85900
C590        C  0.52849197  0.33652833  0.81014278    -0.54300
C591        C  0.52596366  0.37392250  0.82356689     0.08800
C592        C  0.48549566  0.39134250  0.81631779     0.19800
C593        C  0.45907557  0.32547709  0.82524378    -0.55100
C594        C  0.45613972  0.36313430  0.83649406     0.08900
C595        C  0.48092942  0.34861283  0.76170859    -0.54600
C596        C  0.47802845  0.38602895  0.77339789     0.09500
H597        H  0.55530861  0.32053005  0.81061672     0.14000
H598        H  0.48178162  0.42167159  0.82567295    -0.00200
H599        H  0.44070195  0.30198066  0.83712704     0.14300
H600        H  0.47883944  0.34220865  0.73153492     0.14100
C601        C  0.48367192  0.31276250  0.20397055     0.85900
C602        C  0.45004807  0.32609352  0.17795673    -0.54300
C603        C  0.44690301  0.36550277  0.17438875     0.08800
C604        C  0.47735200  0.38850675  0.19658644     0.19800
C605        C  0.51956006  0.33347094  0.18560638    -0.55100
C606        C  0.51663713  0.37289913  0.18175094     0.08900
C607        C  0.47562459  0.33349135  0.24171575    -0.54600
C608        C  0.47196021  0.37300688  0.23863451     0.09500
H609        H  0.43018549  0.30756992  0.16269621     0.14000
H610        H  0.47464974  0.42021143  0.19188773    -0.00200
H611        H  0.54406139  0.31795806  0.17364672     0.14300
H612        H  0.47228107  0.31758832  0.26893268     0.14100
O613        O  0.55913296  0.41997022  0.45265188    -0.80700
O614        O  0.44566756  0.50121791  0.62433734    -0.82300
O615        O  0.57523147  0.46194705  0.57690001    -0.79300
O616        O  0.47035987  0.39091460  0.54510461    -0.77700
O617        O  0.42146245  0.40072680  0.50217828    -0.79500
O618        O  0.59470662  0.52535910  0.56511850    -0.80400
O619        O  0.48811121  0.45163944  0.61381328    -0.81700
O620        O  0.54812558  0.40325973  0.51593932    -0.82000
Eu621      Eu  0.50952846  0.45162414  0.54653454     2.39200
O622        O  0.44445415  0.47228255  0.54265221    -0.89500
O623        O  0.55032605  0.49078810  0.50655705    -0.93100
C624        C  0.56211528  0.39677398  0.48229946     1.01600
C625        C  0.46628900  0.47228390  0.63564540     1.01400
C626        C  0.59961769  0.49128286  0.57972388     1.01300
C627        C  0.44087135  0.37945416  0.52564776     0.99200
H628        H  0.51518187  0.51584636  0.59041756     0.28900
O629        O  0.50554159  0.51590281  0.56470642    -1.01900
H630        H  0.48779589  0.42029732  0.47406599     0.29000
O631        O  0.48720782  0.44672655  0.48296815    -1.04500
O632        O  0.40870118  0.60130602  0.55136632    -0.81700
O633        O  0.52800352  0.52316200  0.38245279    -0.81200
O634        O  0.53860664  0.58270574  0.59243274    -0.79700
O635        O  0.36327197  0.46498549  0.52007375    -0.83000
O636        O  0.42990948  0.44176415  0.41263465    -0.80800
O637        O  0.60802867  0.55132904  0.48683930    -0.79500
O638        O  0.49973527  0.63424409  0.46262247    -0.81000
O639        O  0.39823055  0.56602114  0.42784264    -0.82900
O640        O  0.54727024  0.62441628  0.50670181    -0.79700
O641        O  0.37416332  0.50474779  0.44305353    -0.82400
O642        O  0.47451310  0.57420431  0.61065499    -0.78100
O643        O  0.59694625  0.50629280  0.44035252    -0.78100
O644        O  0.49404017  0.45053635  0.39496229    -0.77800
O645        O  0.37516756  0.50702360  0.56871204    -0.81300
O646        O  0.42378856  0.62003815  0.48927958    -0.80700
O647        O  0.48539559  0.57266856  0.39243019    -0.79000
Eu648      Eu  0.44088254  0.53726816  0.56256680     2.39800
Eu649      Eu  0.52905787  0.48529234  0.44339632     2.39600
Eu650      Eu  0.54683614  0.55593114  0.52621590     2.38400
Eu651      Eu  0.42276299  0.46848829  0.47878936     2.39900
Eu652      Eu  0.46245956  0.57203656  0.45894345     2.39800
O653        O  0.46490953  0.50733678  0.43968452    -0.93400
O654        O  0.48236662  0.57683087  0.52280293    -0.92300
C655        C  0.40713881  0.62510869  0.52197604     1.01700
C656        C  0.50844339  0.55286017  0.37121381     1.00500
C657        C  0.50991360  0.58450446  0.61722365     0.99800
C658        C  0.35336409  0.48202081  0.55140303     1.01900
C659        C  0.45884816  0.43982910  0.38819503     1.00800
C660        C  0.61890335  0.53038083  0.45814253     0.99600
C661        C  0.52802724  0.64605528  0.48357932     0.99700
C662        C  0.37106452  0.53931221  0.42832310     1.02300
H663        H  0.54389242  0.56752183  0.44541525     0.29700
O664        O  0.52725475  0.55128968  0.46197386    -1.05600
H665        H  0.39426298  0.54315700  0.49938439     0.31700
O666        O  0.42042684  0.53348717  0.49929911    -1.08200
O667        O  0.08367144  0.93681767  0.04825809    -0.80700
O668        O  0.00737183  0.04764945  0.87307964    -0.82300
O669        O  0.04803204  0.91494461  0.92679009    -0.79300
O670        O  0.11343066  0.02564767  0.95678846    -0.77700
O671        O  0.09833930  0.07663709  0.99553528    -0.79500
O672        O  0.98544714  0.89429989  0.93956395    -0.80400
O673        O  0.05908842  0.00886717  0.88630928    -0.81700
O674        O  0.10259701  0.94738750  0.98530837    -0.82000
Eu675      Eu  0.05429469  0.98333409  0.95264675     2.39200
O676        O  0.02934370  0.04646657  0.95417197    -0.89500
O677        O  0.01569909  0.94353329  0.99435503    -0.93100
C678        C  0.10775861  0.93371052  0.01925843     1.01600
C679        C  0.04008617  0.03189428  0.86405306     1.01400
C680        C  0.02002801  0.88873506  0.92685170     1.01300
C681        C  0.12193582  0.05744319  0.97438513     0.99200
H682        H  0.99187971  0.97116034  0.90632907     0.28900
O683        O  0.99043971  0.98192217  0.93163694    -1.01900
H684        H  0.08249844  0.00819498  0.02547271     0.29000
O685        O  0.05633375  0.00708513  0.01596502    -1.04500
O686        O  0.89653400  0.06850554  0.93821825    -0.81700
O687        O  0.97930729  0.97187432  0.11776707    -0.81200
O688        O  0.92259342  0.94310467  0.90886118    -0.79700
O689        O  0.02729967  0.12791849  0.97534207    -0.83000
O690        O  0.06068665  0.06526241  0.08293658    -0.80800
O691        O  0.95842920  0.88341742  0.01454614    -0.79500
O692        O  0.86956941  0.98665894  0.03512050    -0.81000
O693        O  0.93379759  0.09766642  0.06273417    -0.82900
O694        O  0.88341831  0.93759563  0.99369248    -0.79700
O695        O  0.99696142  0.11807293  0.05274823    -0.82400
O696        O  0.93273756  0.00504575  0.88438516    -0.78100
O697        O  0.00022319  0.89839341  0.06270986    -0.78100
O698        O  0.05401631  0.00167875  0.10347543    -0.77800
O699        O  0.98636547  0.11343088  0.92610161    -0.81300
O700        O  0.87813112  0.05999832  0.00142448    -0.80700
O701        O  0.92858642  0.01225459  0.10522622    -0.79000
Eu702      Eu  0.96508003  0.04518693  0.93168841     2.39800
Eu703      Eu  0.01789030  0.96652026  0.05702404     2.39600
Eu704      Eu  0.95131362  0.94259193  0.97381937     2.38400
Eu705      Eu  0.03117576  0.06976993  0.01739222     2.39900
Eu706      Eu  0.92880665  0.02956263  0.03704250     2.39800
O707        O  0.99292398  0.02961563  0.05837758    -0.93400
O708        O  0.92722328  0.00558624  0.97420137    -0.92300
C709        C  0.87126897  0.06977681  0.96646618     1.01700
C710        C  0.94924547  0.99157970  0.12802895     1.00500
C711        C  0.92126248  0.96926053  0.88163728     0.99800
C712        C  0.00876776  0.13665074  0.94460578     1.01900
C713        C  0.06519277  0.03708362  0.10785001     1.00800
C714        C  0.97888859  0.87460213  0.04405532     0.99600
C715        C  0.86006301  0.95644961  0.01540563     0.99700
C716        C  0.96185970  0.12358742  0.06428672     1.02300
H717        H  0.93674271  0.94861728  0.05422750     0.29700
O718        O  0.95253068  0.96534528  0.03725521    -1.05600
H719        H  0.95639043  0.09505635  0.99356064     0.31700
O720        O  0.96689948  0.06922906  0.99452946    -1.08200
C721        C  0.47501362  0.44666194  0.31906660    -0.20900
C722        C  0.45307276  0.42674439  0.34822945    -0.07500
C723        C  0.43160378  0.39305485  0.33880860     0.13400
C724        C  0.43543807  0.37849491  0.30139460    -0.20900
C725        C  0.46115391  0.39604516  0.27339725    -0.07500
C726        C  0.47951368  0.43198030  0.28200601     0.13400
C727        C  0.50592988  0.45422507  0.25379452    -0.24300
H728        H  0.49086132  0.47306459  0.32609639     0.14700
H729        H  0.41977742  0.35187544  0.29463741     0.14700
C730        C  0.40691688  0.37099528  0.36856116    -0.24200
H731        H  0.52118461  0.47903853  0.26742007     0.04900
H732        H  0.48855225  0.46703273  0.23046458     0.08200
H733        H  0.52856019  0.43491721  0.24205136     0.08200
H734        H  0.38326510  0.38980424  0.37913890     0.08100
H735        H  0.42511155  0.36193362  0.39303176     0.08100
H736        H  0.39330440  0.34435429  0.35664400     0.04900
C737        C  0.50577634  0.43538733  0.72810400    -0.20900
C738        C  0.47241072  0.41798118  0.74514741    -0.07500
C739        C  0.43552088  0.42574031  0.72979265     0.13400
C740        C  0.43328616  0.44800282  0.69559550    -0.20900
C741        C  0.46724935  0.46214764  0.67677541    -0.07500
C742        C  0.50349546  0.45845841  0.69481490     0.13400
C743        C  0.54053171  0.47728390  0.67874509    -0.24300
H744        H  0.53417283  0.42885931  0.73920894     0.14700
H745        H  0.40551564  0.45126976  0.68181522     0.14700
C746        C  0.39893494  0.40811389  0.74770500    -0.24200
H747        H  0.55407150  0.49543039  0.70108836     0.04900
H748        H  0.53527615  0.49671839  0.65371579     0.08200
H749        H  0.56123383  0.45453972  0.66997642     0.08200
H750        H  0.39646417  0.41654154  0.77826452     0.08100
H751        H  0.39986935  0.37596098  0.74569764     0.08100
H752        H  0.37255699  0.41809499  0.73279326     0.04900
C753        C  0.94641792  0.82157824  0.08102422    -0.20900
C754        C  0.97849157  0.83446739  0.05867417    -0.07500
C755        C  0.01266651  0.81227947  0.05739433     0.13400
C756        C  0.01430547  0.77786800  0.07961142    -0.20900
C757        C  0.98318695  0.76638200  0.10407704    -0.07500
C758        C  0.94832911  0.78785407  0.10400632     0.13400
C759        C  0.91268569  0.77630349  0.12787008    -0.24300
H760        H  0.92051449  0.83909610  0.08224492     0.14700
H761        H  0.04079873  0.76125821  0.07979834     0.14700
C762        C  0.04793613  0.82579858  0.03390764    -0.24200
H763        H  0.90731924  0.79850539  0.14999824     0.04900
H764        H  0.91523203  0.74742468  0.14208484     0.08200
H765        H  0.88704396  0.77444037  0.10906983     0.08200
H766        H  0.05898964  0.85418768  0.04433819     0.08100
H767        H  0.04008675  0.82912678  0.00332187     0.08100
H768        H  0.07195300  0.80473306  0.03577267     0.04900
C769        C  0.97830116  0.19405507  0.06054946    -0.20900
C770        C  0.95524094  0.16378701  0.07802531    -0.07500
C771        C  0.93132588  0.17247610  0.10993788     0.13400
C772        C  0.93395093  0.20993857  0.12549032    -0.20900
C773        C  0.96069195  0.23863813  0.11070640    -0.07500
C774        C  0.98158139  0.23114416  0.07642134     0.13400
C775        C  0.00928356  0.26068883  0.05747914    -0.24300
H776        H  0.99578373  0.18796240  0.03518405     0.14700
H777        H  0.91698393  0.21599029  0.15120567     0.14700
C778        C  0.90524202  0.14190692  0.12933094    -0.24200
H779        H  0.02539071  0.24831474  0.03272819     0.04900
H780        H  0.03111930  0.27079015  0.07824784     0.08200
H781        H  0.99286346  0.28563917  0.04599620     0.08200
H782        H  0.92286669  0.11710185  0.13932062     0.08100
H783        H  0.88326273  0.13139449  0.10886328     0.08100
H784        H  0.88946737  0.15350391  0.15467415     0.04900
C785        C  0.53121565  0.61562318  0.28436715    -0.20900
C786        C  0.49839736  0.60738892  0.26225393    -0.07500
C787        C  0.47297749  0.57624593  0.27322858     0.13400
C788        C  0.47952282  0.55571802  0.30764775    -0.20900
C789        C  0.51090077  0.56566031  0.33092412    -0.07500
C790        C  0.53762135  0.59526419  0.31881438     0.13400
C791        C  0.57132155  0.60698346  0.34340066    -0.24300
H792        H  0.55088057  0.63938784  0.27552938     0.14700
H793        H  0.45833904  0.53388316  0.31794522     0.14700
C794        C  0.43746742  0.56661504  0.25038732    -0.24200
H795        H  0.58918610  0.63104378  0.32974042     0.04900
H796        H  0.59036438  0.58164539  0.34798291     0.08200
H797        H  0.56038490  0.61704255  0.37167870     0.08200
H798        H  0.44632847  0.55767399  0.22111197     0.08100
H799        H  0.41872981  0.59250786  0.24824635     0.08100
H800        H  0.41993601  0.54228626  0.26398733     0.04900
C801        C  0.54262887  0.63729228  0.70662655    -0.20900
C802        C  0.51602836  0.62100210  0.73437246    -0.07500
C803        C  0.49327817  0.58821728  0.72470019     0.13400
C804        C  0.49436887  0.57569378  0.68662194    -0.20900
C805        C  0.51693604  0.59545106  0.65761975    -0.07500
C806        C  0.54275889  0.62557116  0.66816987     0.13400
C807        C  0.56791353  0.64762551  0.63878404    -0.24300
H808        H  0.56115507  0.66169140  0.71442124     0.14700
H809        H  0.47585570  0.55123643  0.67905232     0.14700
C810        C  0.46603703  0.56774236  0.75341032    -0.24200
H811        H  0.58532310  0.67122410  0.65200860     0.04900
H812        H  0.54934000  0.66112521  0.61670608     0.08200
H813        H  0.58846922  0.62768057  0.62471814     0.08200
H814        H  0.44543465  0.58876546  0.76589560     0.08100
H815        H  0.48299754  0.55388360  0.77650810     0.08100
H816        H  0.44864136  0.54424607  0.73998186     0.04900
C817        C  0.98593356  0.20347953  0.94525947    -0.20900
C818        C  0.01170866  0.17672319  0.92980322    -0.07500
C819        C  0.03448554  0.18700437  0.89691330     0.13400
C820        C  0.03056390  0.22401174  0.88010294    -0.20900
C821        C  0.00205688  0.24983395  0.89320219    -0.07500
C822        C  0.98029004  0.23968993  0.92706609     0.13400
C823        C  0.94971980  0.26540503  0.94330923    -0.24300
H824        H  0.96813036  0.19484386  0.97022488     0.14700
H825        H  0.04793982  0.23154742  0.85455955     0.14700
C826        C  0.06127961  0.15895052  0.87741300    -0.24200
H827        H  0.93293431  0.25091775  0.96743781     0.04900
H828        H  0.92879106  0.27314971  0.92069276     0.08200
H829        H  0.96433982  0.29144915  0.95507189     0.08200
H830        H  0.06212949  0.13024891  0.89254216     0.08100
H831        H  0.09129221  0.17154986  0.87592376     0.08100
H832        H  0.05141168  0.15399829  0.84770654     0.04900
C833        C  0.00123666  0.81881963  0.93088616    -0.20900
C834        C  0.02544808  0.84817334  0.91321650    -0.07500
C835        C  0.04796295  0.83858240  0.88061646     0.13400
C836        C  0.04412166  0.80082787  0.86568007    -0.20900
C837        C  0.01671140  0.77305316  0.88113769    -0.07500
C838        C  0.99539287  0.78222426  0.91466117     0.13400
C839        C  0.96375657  0.75553397  0.93168940    -0.24300
H840        H  0.98434551  0.82552040  0.95647782     0.14700
H841        H  0.06090865  0.79376172  0.84015230     0.14700
C842        C  0.07366089  0.86856588  0.85984933    -0.24200
H843        H  0.97649544  0.72923288  0.94483322     0.04900
H844        H  0.94292709  0.74716777  0.90920207     0.08200
H845        H  0.94689501  0.76982280  0.95483690     0.08200
H846        H  0.09647259  0.87930619  0.87925919     0.08100
H847        H  0.05591638  0.89340416  0.85004564     0.08100
H848        H  0.08837406  0.85632851  0.83421896     0.04900
C849        C  0.07962515  0.43015839  0.89627290    -0.20900
C850        C  0.11161475  0.41107109  0.91194463    -0.07500
C851        C  0.11519008  0.37036444  0.90673957     0.13400
C852        C  0.08652773  0.34997098  0.88663627    -0.20900
C853        C  0.05487338  0.36914881  0.87100221    -0.07500
C854        C  0.05138122  0.40968394  0.87560016     0.13400
C855        C  0.01776402  0.43123206  0.85892596    -0.24300
H856        H  0.07700047  0.46131051  0.89978704     0.14700
H857        H  0.08858665  0.31872784  0.88332729     0.14700
C858        C  0.14829312  0.34778991  0.92337246    -0.24200
H859        H  0.01991140  0.46298007  0.86429787     0.04900
H860        H  0.99008370  0.41988734  0.87220108     0.08200
H861        H  0.01725764  0.42721358  0.82738181     0.08200
H862        H  0.14971839  0.35253183  0.95476649     0.08100
H863        H  0.17624737  0.35711022  0.90913539     0.08100
H864        H  0.14463077  0.31597268  0.91899323     0.04900
C865        C  0.03586648  0.38611472  0.09978097    -0.20900
C866        C  0.04666126  0.35050589  0.11629799    -0.07500
C867        C  0.08626903  0.34025327  0.11488316     0.13400
C868        C  0.11413199  0.36670083  0.09881206    -0.20900
C869        C  0.10376959  0.40314534  0.08306203    -0.07500
C870        C  0.06361437  0.41275197  0.08355854     0.13400
C871        C  0.04928683  0.45131494  0.06851228    -0.24300
H872        H  0.00550453  0.39381931  0.10085681     0.14700
H873        H  0.14433140  0.35819345  0.09811624     0.14700
C874        C  0.10013212  0.30119602  0.12900224    -0.24200
H875        H  0.01744269  0.45425722  0.07348483     0.04900
H876        H  0.05479534  0.45400094  0.03703966     0.08200
H877        H  0.06405633  0.47561828  0.08338091     0.08200
H878        H  0.07600105  0.28101313  0.13832396     0.08100
H879        H  0.11990055  0.30534468  0.15344671     0.08100
H880        H  0.11630838  0.28688176  0.10541508     0.04900
C881        C  0.07478731  0.59035786  0.09276646    -0.20900
C882        C  0.11269953  0.60550538  0.08614282    -0.07500
C883        C  0.12151159  0.64418779  0.09784766     0.13400
C884        C  0.09231304  0.66609627  0.11561564    -0.20900
C885        C  0.05462930  0.65074538  0.12196938    -0.07500
C886        C  0.04582122  0.61236095  0.11061721     0.13400
C887        C  0.00612103  0.59408789  0.11797774    -0.24300
H888        H  0.06779158  0.56085506  0.08433324     0.14700
H889        H  0.09886869  0.69550576  0.12466097     0.14700
C890        C  0.16112098  0.66329645  0.09115182    -0.24200
H891        H  0.00503700  0.56296050  0.10989842     0.04900
H892        H  0.98459373  0.60959937  0.10046145     0.08200
H893        H  0.99804389  0.59563709  0.14895930     0.08200
H894        H  0.16942641  0.66254415  0.06017504     0.08100
H895        H  0.18313675  0.64822746  0.10859031     0.08100
H896        H  0.16157054  0.69430611  0.09967184     0.04900
C897        C  0.10038459  0.59024290  0.88126594    -0.20900
C898        C  0.11652773  0.60541652  0.91443352    -0.07500
C899        C  0.10777220  0.64358026  0.92554170     0.13400
C900        C  0.08266008  0.66564981  0.90307244    -0.20900
C901        C  0.06629264  0.65073381  0.86961428    -0.07500
C902        C  0.07588250  0.61249048  0.85819242     0.13400
C903        C  0.06056884  0.59421734  0.82227184    -0.24300
H904        H  0.10788578  0.56103016  0.87286806     0.14700
H905        H  0.07569753  0.69483077  0.91195276     0.14700
C906        C  0.12394388  0.66167005  0.96111066    -0.24200
H907        H  0.06715829  0.56269874  0.82122854     0.04900
H908        H  0.07481296  0.60820509  0.79651908     0.08200
H909        H  0.02856149  0.59684481  0.82064446     0.08200
H910        H  0.14115479  0.68841706  0.95290313     0.08100
H911        H  0.14303936  0.64187918  0.97732883     0.08100
H912        H  0.09958503  0.66971325  0.98066983     0.04900
C913        C  0.35955118  0.39206656  0.88097668    -0.20900
C914        C  0.37176102  0.41894145  0.90847189    -0.07500
C915        C  0.41242417  0.42449903  0.91400913     0.13400
C916        C  0.43886616  0.40379297  0.89148840    -0.20900
C917        C  0.42636677  0.37748170  0.86389393    -0.07500
C918        C  0.38605569  0.37061798  0.85940152     0.13400
C919        C  0.37023602  0.34131206  0.83177828    -0.24300
H920        H  0.32878708  0.38730866  0.87633824     0.14700
H921        H  0.46986547  0.40879763  0.89483740     0.14700
C922        C  0.42897191  0.45270978  0.94241593    -0.24200
H923        H  0.33815170  0.34304417  0.82926141     0.04900
H924        H  0.37647901  0.31140461  0.84217583     0.08200
H925        H  0.38331930  0.34623656  0.80278305     0.08200
H926        H  0.41959783  0.44392618  0.97206661     0.08100
H927        H  0.41938309  0.48271124  0.93556658     0.08100
H928        H  0.46131427  0.45341503  0.94168497     0.04900
C929        C  0.39945001  0.62557066  0.84151419    -0.20900
C930        C  0.43823880  0.62257182  0.85265445    -0.07500
C931        C  0.44605099  0.60128797  0.88679610     0.13400
C932        C  0.41502763  0.58446101  0.90903988    -0.20900
C933        C  0.37584941  0.58842339  0.89867722    -0.07500
C934        C  0.36830404  0.60881697  0.86355708     0.13400
C935        C  0.32785096  0.61315268  0.84824345    -0.24300
H936        H  0.39344921  0.64183394  0.81534343     0.14700
H937        H  0.42160952  0.56888981  0.93541936     0.14700
C938        C  0.48665292  0.59825425  0.90155528    -0.24200
H939        H  0.32811874  0.62837699  0.81975993     0.04900
H940        H  0.30996084  0.63068779  0.86802521     0.08200
H941        H  0.31408674  0.58395487  0.84459511     0.08200
H942        H  0.48738035  0.58151225  0.92917477     0.08100
H943        H  0.50549995  0.58316510  0.88065457     0.08100
H944        H  0.49825875  0.62795868  0.90669581     0.04900
C945        C  0.40951697  0.58858131  0.08905179    -0.20900
C946        C  0.37004857  0.59025995  0.10073443    -0.07500
C947        C  0.36100113  0.60957731  0.13561029     0.13400
C948        C  0.39105898  0.62721459  0.15640221    -0.20900
C949        C  0.43013236  0.62538239  0.14450736    -0.07500
C950        C  0.43951187  0.60540617  0.11054087     0.13400
C951        C  0.48090136  0.60270700  0.09592639    -0.24300
H952        H  0.41719333  0.57401401  0.06273554     0.14700
H953        H  0.38408381  0.64226496  0.18266069     0.14700
C954        C  0.32016151  0.61128776  0.15220921    -0.24200
H955        H  0.48273340  0.58787905  0.06791903     0.04900
H956        H  0.49821307  0.58561809  0.11650316     0.08200
H957        H  0.49379033  0.63242928  0.09180343     0.08200
H958        H  0.30795398  0.58129746  0.15686482     0.08100
H959        H  0.30151671  0.62828298  0.13266958     0.08100
H960        H  0.31934497  0.62578001  0.18043708     0.04900
C961        C  0.36273798  0.42551479  0.13883251    -0.20900
C962        C  0.36331667  0.41684778  0.09969009    -0.07500
C963        C  0.39062354  0.39042124  0.08528400     0.13400
C964        C  0.41784866  0.37443887  0.11028519    -0.20900
C965        C  0.41789841  0.38388939  0.14934875    -0.07500
C966        C  0.38958821  0.40924354  0.16397117     0.13400
C967        C  0.38651737  0.41812191  0.20612861    -0.24300
H968        H  0.34131070  0.44542671  0.14966238     0.14700
H969        H  0.43916006  0.35436059  0.09938144     0.14700
C970        C  0.39006758  0.37798166  0.04406258    -0.24200
H971        H  0.36093689  0.43625359  0.21273823     0.04900
H972        H  0.41274901  0.43452403  0.21512258     0.08200
H973        H  0.38330713  0.39055066  0.22328179     0.08200
H974        H  0.39536613  0.40358346  0.02460112     0.08100
H975        H  0.36127215  0.36450304  0.03787738     0.08100
H976        H  0.41279934  0.35631432  0.03784266     0.04900
C977        C  0.61326443  0.41391816  0.14205332    -0.20900
C978        C  0.60301257  0.42761148  0.10523082    -0.07500
C979        C  0.56290994  0.42642875  0.09563237     0.13400
C980        C  0.53515001  0.41055818  0.12229884    -0.20900
C981        C  0.54595139  0.39595033  0.15831755    -0.07500
C982        C  0.58540237  0.39848447  0.16861882     0.13400
C983        C  0.59905389  0.38549972  0.20761878    -0.24300
H984        H  0.64339693  0.41543850  0.15057898     0.14700
H985        H  0.50486303  0.40815111  0.11441677     0.14700
C986        C  0.54875095  0.44052597  0.05715999    -0.24200
H987        H  0.61968059  0.36126442  0.20437040     0.04900
H988        H  0.57487293  0.37551811  0.22725962     0.08200
H989        H  0.61418404  0.41025140  0.22143986     0.08200
H990        H  0.51696669  0.43521542  0.05423549     0.08100
H991        H  0.56380709  0.42491642  0.03370629     0.08100
H992        H  0.55410093  0.47242945  0.05373437     0.04900
C993        C  0.60499143  0.57708869  0.13404118    -0.20900
C994        C  0.61342092  0.59466115  0.09807571    -0.07500
C995        C  0.59717021  0.63087648  0.08852081     0.13400
C996        C  0.57091796  0.64745431  0.11430676    -0.20900
C997        C  0.56117449  0.62925523  0.14978926    -0.07500
C998        C  0.57946575  0.59417089  0.16039749     0.13400
C999        C  0.57462462  0.57590364  0.20002565    -0.24300
H1000       H  0.61906663  0.55011331  0.14174995     0.14700
H1001       H  0.55739507  0.67462016  0.10626642     0.14700
C1002       C  0.60706488  0.65311880  0.05184787    -0.24200
H1003       H  0.54467237  0.56434951  0.20516847     0.04900
H1004       H  0.59439786  0.55102877  0.20411578     0.08200
H1005       H  0.58185759  0.59783451  0.22183615     0.08200
H1006       H  0.58016566  0.65696520  0.03526495     0.08100
H1007       H  0.62889059  0.63826793  0.03379491     0.08100
H1008       H  0.61908641  0.68239705  0.05862715     0.04900
C1009       C  0.57315194  0.64742196  0.89096600    -0.20900
C1010       C  0.57019134  0.63620168  0.85263615    -0.07500
C1011       C  0.59496642  0.60736610  0.83819587     0.13400
C1012       C  0.61999770  0.58832876  0.86339504    -0.20900
C1013       C  0.62064316  0.59758078  0.90240852    -0.07500
C1014       C  0.59784681  0.62812246  0.91612561     0.13400
C1015       C  0.60014343  0.64077068  0.95703294    -0.24300
H1016       H  0.55505449  0.67053878  0.90157279     0.14700
H1017       H  0.63898306  0.56595110  0.85272903     0.14700
C1018       C  0.59648746  0.59791952  0.79612995    -0.24200
H1019       H  0.58081797  0.66560083  0.96286131     0.04900
H1020       H  0.63049208  0.65009696  0.96313426     0.08200
H1021       H  0.59112012  0.61610360  0.97658513     0.08200
H1022       H  0.60205681  0.62503857  0.77872538     0.08100
H1023       H  0.56875519  0.58404603  0.78751583     0.08100
H1024       H  0.62011429  0.57737559  0.78942206     0.04900
C1025       C  0.58960732  0.44729106  0.87945488    -0.20900
C1026       C  0.61211915  0.42217503  0.90174345    -0.07500
C1027       C  0.60782697  0.38149737  0.89623984     0.13400
C1028       C  0.57947793  0.36738259  0.87120588    -0.20900
C1029       C  0.55710782  0.39230086  0.84817889    -0.07500
C1030       C  0.56386405  0.43322453  0.85160089     0.13400
C1031       C  0.54717673  0.46336638  0.82504580    -0.24300
H1032       H  0.59393505  0.47851634  0.88212888     0.14700
H1033       H  0.57505379  0.33612385  0.86997569     0.14700
C1034       C  0.63204728  0.35154521  0.91623493    -0.24200
H1035       H  0.57077557  0.48342566  0.81386689     0.04900
H1036       H  0.52526205  0.48060452  0.84080453     0.08200
H1037       H  0.53411431  0.45045167  0.79965408     0.08200
H1038       H  0.61307114  0.33293307  0.93559506     0.08100
H1039       H  0.65572057  0.36447276  0.93292045     0.08100
H1040       H  0.64595313  0.33274301  0.89454439     0.04900
C1041       C  0.85566644  0.36928933  0.10070046    -0.20900
C1042       C  0.86414502  0.40915678  0.09423913    -0.07500
C1043       C  0.89914786  0.42530417  0.10851701     0.13400
C1044       C  0.92457186  0.40111772  0.12860332    -0.20900
C1045       C  0.91653680  0.36117089  0.13377442    -0.07500
C1046       C  0.88145661  0.34507799  0.12009284     0.13400
C1047       C  0.87026769  0.30257948  0.12542356    -0.24300
H1048       H  0.82892456  0.35668692  0.08996748     0.14700
H1049       H  0.95141089  0.41324417  0.13952050     0.14700
C1050       C  0.90986333  0.46791517  0.10311328    -0.24200
H1051       H  0.86823846  0.28883562  0.09693096     0.04900
H1052       H  0.84149487  0.29986121  0.14048275     0.08200
H1053       H  0.89123117  0.28618700  0.14281196     0.08200
H1054       H  0.88599925  0.48597797  0.11444561     0.08100
H1055       H  0.91521048  0.47495855  0.07217416     0.08100
H1056       H  0.93682020  0.47582423  0.11844273     0.04900
C1057       C  0.91650886  0.36106062  0.91547761    -0.20900
C1058       C  0.92461775  0.36769703  0.87608339    -0.07500
C1059       C  0.90529856  0.39887090  0.85720728     0.13400
C1060       C  0.87658319  0.41932262  0.87731080    -0.20900
C1061       C  0.86850628  0.41156669  0.91627481    -0.07500
C1062       C  0.88887228  0.38243693  0.93576913     0.13400
C1063       C  0.88086796  0.37337962  0.97785715    -0.24300
H1064       H  0.93168072  0.33913144  0.93090369     0.14700
H1065       H  0.86131660  0.44255392  0.86282520     0.14700
C1066       C  0.91611560  0.41386274  0.81725918    -0.24200
H1067       H  0.89881942  0.34907732  0.98858197     0.04900
H1068       H  0.84973613  0.36485375  0.98249790     0.08200
H1069       H  0.88757489  0.39944260  0.99506974     0.08200
H1070       H  0.94648599  0.40719272  0.80890223     0.08100
H1071       H  0.91457513  0.44616424  0.81585705     0.08100
H1072       H  0.89548117  0.40172697  0.79629201     0.04900
C1073       C  0.89681054  0.66688145  0.87986464    -0.20900
C1074       C  0.93561925  0.65557320  0.88238502    -0.07500
C1075       C  0.94393780  0.62150322  0.90406881     0.13400
C1076       C  0.91340894  0.59950011  0.92190706    -0.20900
C1077       C  0.87431978  0.61009467  0.91881077    -0.07500
C1078       C  0.86611373  0.64512039  0.89784387     0.13400
C1079       C  0.82552999  0.66066889  0.89416039    -0.24300
H1080       H  0.89047214  0.69295152  0.86319516     0.14700
H1081       H  0.92029159  0.57312328  0.93775661     0.14700
C1082       C  0.98451904  0.60647409  0.90690475    -0.24200
H1083       H  0.82547453  0.68911646  0.87833034     0.04900
H1084       H  0.81247491  0.66529443  0.92311543     0.08200
H1085       H  0.80709362  0.64019950  0.87791665     0.08200
H1086       H  0.00329411  0.62751108  0.92196963     0.08100
H1087       H  0.99616705  0.60134106  0.87771271     0.08100
H1088       H  0.98531333  0.57836416  0.92323374     0.04900
C1089       C  0.88560247  0.62862824  0.07301459    -0.20900
C1090       C  0.87001691  0.59679820  0.09385344    -0.07500
C1091       C  0.88010826  0.59086339  0.13255768     0.13400
C1092       C  0.90715044  0.61662307  0.14893446    -0.20900
C1093       C  0.92287296  0.64928519  0.12813972    -0.07500
C1094       C  0.91016690  0.65588147  0.08987005     0.13400
C1095       C  0.91869637  0.69217770  0.06604650    -0.24300
H1096       H  0.87647904  0.63363118  0.04367361     0.14700
H1097       H  0.91633784  0.61060770  0.17798382     0.14700
C1098       C  0.86318442  0.55768835  0.15706142    -0.24200
H1099       H  0.89111400  0.70408053  0.05514500     0.04900
H1100       H  0.93803306  0.68546889  0.04119718     0.08200
H1101       H  0.93173085  0.71532165  0.08271629     0.08200
H1102       H  0.88699771  0.53905061  0.16737291     0.08100
H1103       H  0.84244452  0.53905130  0.14133480     0.08100
H1104       H  0.84745484  0.56950932  0.18230869     0.04900
C1105       C  0.11648460  0.04378188  0.78574522    -0.20900
C1106       C  0.09742777  0.02628911  0.75464746    -0.07500
C1107       C  0.05608262  0.02332335  0.75719700     0.13400
C1108       C  0.03687965  0.03167379  0.79233680    -0.20900
C1109       C  0.05792847  0.03965681  0.82542036    -0.07500
C1110       C  0.09794025  0.04855978  0.82125983     0.13400
C1111       C  0.12226110  0.06258158  0.85387591    -0.24300
H1112       H  0.14699642  0.05219512  0.78341429     0.14700
H1113       H  0.00549611  0.02958091  0.79455989     0.14700
C1114       C  0.03160319  0.01089469  0.72424608    -0.24200
H1115       H  0.13651598  0.09094712  0.84557209     0.04900
H1116       H  0.14508406  0.04108555  0.86023601     0.08200
H1117       H  0.10471837  0.06690481  0.88040576     0.08200
H1118       H  0.04056956  0.98190237  0.71440152     0.08100
H1119       H  0.03403924  0.03316825  0.70074866     0.08100
H1120       H  0.00026596  0.00853831  0.73247134     0.04900
C1121       C  0.12933080  0.01509983  0.18984398    -0.20900
C1122       C  0.10955281  0.03101876  0.22172944    -0.07500
C1123       C  0.07554310  0.05264064  0.21426594     0.13400
C1124       C  0.06355383  0.05825101  0.17583687    -0.20900
C1125       C  0.08473267  0.04329844  0.14464983    -0.07500
C1126       C  0.11851896  0.02226410  0.15200696     0.13400
C1127       C  0.14281430  0.00614233  0.11966567    -0.24300
H1128       H  0.15393267  0.99645156  0.19433196     0.14700
H1129       H  0.03633509  0.07250939  0.17023597     0.14700
C1130       C  0.05087433  0.06898121  0.24590371    -0.24200
H1131       H  0.16908235  0.99135744  0.13026866     0.04900
H1132       H  0.15261567  0.03020121  0.09967765     0.08200
H1133       H  0.12540085  0.98454731  0.10379125     0.08200
H1134       H  0.06891271  0.08767569  0.26406570     0.08100
H1135       H  0.03687889  0.04492994  0.26324268     0.08100
H1136       H  0.02717165  0.08710615  0.23444565     0.04900
C1137       C  0.17818783  0.51912165  0.19078747    -0.20900
C1138       C  0.21329290  0.50170709  0.18026874    -0.07500
C1139       C  0.23472354  0.48206892  0.20833689     0.13400
C1140       C  0.22240705  0.48351438  0.24682649    -0.20900
C1141       C  0.18998808  0.50544287  0.25829131    -0.07500
C1142       C  0.16498954  0.51895824  0.22920345     0.13400
C1143       C  0.12286139  0.52823107  0.23652894    -0.24300
H1144       H  0.15993714  0.53106158  0.16857892     0.14700
H1145       H  0.23948647  0.46893527  0.26837939     0.14700
C1146       C  0.27164105  0.46140903  0.19812621    -0.24200
H1147       H  0.11819070  0.55984924  0.23170250     0.04900
H1148       H  0.11260423  0.51883592  0.26571520     0.08200
H1149       H  0.10442114  0.51176175  0.21637713     0.08200
H1150       H  0.29263008  0.48238962  0.18388480     0.08100
H1151       H  0.26528307  0.43713949  0.17851189     0.08100
H1152       H  0.28560006  0.44891595  0.22395358     0.04900
C1153       C  0.26256502  0.53657901  0.41746755    -0.20900
C1154       C  0.25936907  0.54425731  0.37793263    -0.07500
C1155       C  0.29197790  0.56278443  0.35833172     0.13400
C1156       C  0.32887072  0.56140122  0.37487317    -0.20900
C1157       C  0.33252815  0.54844353  0.41283858    -0.07500
C1158       C  0.29838923  0.54173842  0.43550694     0.13400
C1159       C  0.29965505  0.54275789  0.47861095    -0.24300
H1160       H  0.23759322  0.52619590  0.43443472     0.14700
H1161       H  0.35455314  0.57099774  0.35836433     0.14700
C1162       C  0.28866993  0.58681037  0.32183075    -0.24200
H1163       H  0.31223957  0.57092013  0.48760798     0.04900
H1164       H  0.31790081  0.51925054  0.48981315     0.08200
H1165       H  0.27009132  0.54060292  0.49198756     0.08200
H1166       H  0.25800990  0.59165071  0.31405347     0.08100
H1167       H  0.30448743  0.57276967  0.29786043     0.08100
H1168       H  0.30190703  0.61618270  0.32601266     0.04900
C1169       C  0.76224763  0.53965676  0.20424174    -0.20900
C1170       C  0.76326528  0.50479522  0.18396449    -0.07500
C1171       C  0.77705179  0.47107866  0.20333043     0.13400
C1172       C  0.78762377  0.47308153  0.24210975    -0.20900
C1173       C  0.78570088  0.50778264  0.26304126    -0.07500
C1174       C  0.77282929  0.54181612  0.24293650     0.13400
C1175       C  0.76886696  0.58153356  0.26032942    -0.24300
H1176       H  0.75249509  0.56593141  0.18988957     0.14700
H1177       H  0.79621491  0.44639081  0.25590856     0.14700
C1178       C  0.78148293  0.43252566  0.18373726    -0.24200
H1179       H  0.78872495  0.60267518  0.24472035     0.04900
H1180       H  0.77543469  0.58290883  0.29094942     0.08200
H1181       H  0.73848493  0.59137826  0.25732776     0.08200
H1182       H  0.80143512  0.43622354  0.15837241     0.08100
H1183       H  0.75262996  0.42108751  0.17500081     0.08100
H1184       H  0.79409480  0.41002391  0.20288134     0.04900
C1185       C  0.72089021  0.50360245  0.42843494    -0.20900
C1186       C  0.72604666  0.52650871  0.39469622    -0.07500
C1187       C  0.69844734  0.55593697  0.38677553     0.13400
C1188       C  0.66532646  0.55895030  0.41064963    -0.20900
C1189       C  0.65897136  0.53410523  0.44250265    -0.07500
C1190       C  0.68747514  0.50680035  0.45216171     0.13400
C1191       C  0.68183219  0.48016439  0.48677495    -0.24300
H1192       H  0.74198137  0.48157141  0.43515539     0.14700
H1193       H  0.64323327  0.57979464  0.40325352     0.14700
C1194       C  0.70223792  0.58512338  0.35393054    -0.24200
H1195       H  0.70702405  0.46084506  0.49076801     0.04900
H1196       H  0.65532574  0.46154380  0.48368031     0.08200
H1197       H  0.67852164  0.49805059  0.51276248     0.08200
H1198       H  0.72982413  0.58329927  0.33764747     0.08100
H1199       H  0.70105962  0.61508184  0.36531535     0.08100
H1200       H  0.67782474  0.58087819  0.33396017     0.04900
C1201       C  0.91559559  0.97473559  0.77529228    -0.20900
C1202       C  0.87522727  0.97101594  0.77091228    -0.07500
C1203       C  0.85325177  0.95138787  0.80123048     0.13400
C1204       C  0.86860840  0.94919276  0.83812207    -0.20900
C1205       C  0.90761771  0.95855832  0.84341343    -0.07500
C1206       C  0.93211925  0.96498858  0.81078963     0.13400
C1207       C  0.97502752  0.95855918  0.81369585    -0.24300
H1208       H  0.93402662  0.98512886  0.75149145     0.14700
H1209       H  0.85023670  0.94006203  0.86249881     0.14700
C1210       C  0.81491145  0.93048166  0.79548143    -0.24200
H1211       H  0.99019185  0.96242441  0.78541243     0.04900
H1212       H  0.97975229  0.92815635  0.82381510     0.08200
H1213       H  0.98788561  0.97841795  0.83474809     0.08200
H1214       H  0.80782591  0.92824978  0.76469969     0.08100
H1215       H  0.79131705  0.94518096  0.81150323     0.08100
H1216       H  0.81665256  0.90005162  0.80672538     0.04900
C1217       C  0.90378803  0.96355148  0.22508932    -0.20900
C1218       C  0.89736900  0.00076256  0.23987943    -0.07500
C1219       C  0.91292371  0.03393165  0.22001632     0.13400
C1220       C  0.93345211  0.02931784  0.18526021    -0.20900
C1221       C  0.93731792  0.99249124  0.16896527    -0.07500
C1222       C  0.92326757  0.95903557  0.18949481     0.13400
C1223       C  0.92600141  0.91914907  0.17249421    -0.24300
H1224       H  0.89078824  0.93826392  0.23987022     0.14700
H1225       H  0.94419943  0.05490799  0.16925725     0.14700
C1226       C  0.90526292  0.07438925  0.23391991    -0.24200
H1227       H  0.91247404  0.89626536  0.19180636     0.04900
H1228       H  0.95702257  0.91192658  0.16759391     0.08200
H1229       H  0.91077883  0.91856568  0.14468487     0.08200
H1230       H  0.91716600  0.07777202  0.26298707     0.08100
H1231       H  0.87345600  0.07945650  0.23505504     0.08100
H1232       H  0.91911043  0.09714350  0.21468111     0.04900
C1233       C  0.16962593  0.49347937  0.77260292    -0.20900
C1234       C  0.18936884  0.51675770  0.74425217    -0.07500
C1235       C  0.22008535  0.54190425  0.75685712     0.13400
C1236       C  0.23313502  0.53857740  0.79490439    -0.20900
C1237       C  0.21589621  0.51195109  0.82155964    -0.07500
C1238       C  0.18262970  0.49035262  0.81047722     0.13400
C1239       C  0.15951288  0.46486414  0.83881458    -0.24300
H1240       H  0.14344467  0.47752165  0.76582215     0.14700
H1241       H  0.25715859  0.55701490  0.80380578     0.14700
C1242       C  0.24041954  0.57260988  0.73150671    -0.24200
H1243       H  0.13301450  0.45199275  0.82596890     0.04900
H1244       H  0.15001977  0.48247041  0.86355918     0.08200
H1245       H  0.17745452  0.44033310  0.84882956     0.08200
H1246       H  0.22799265  0.57578572  0.70266697     0.08100
H1247       H  0.27168337  0.56556387  0.72805570     0.08100
H1248       H  0.23822055  0.60140465  0.74524480     0.04900
C1249       C  0.24507465  0.48028553  0.57569551    -0.20900
C1250       C  0.24675621  0.48132350  0.61608968    -0.07500
C1251       C  0.28120062  0.46678814  0.63284186     0.13400
C1252       C  0.31567763  0.46733988  0.61086412    -0.20900
C1253       C  0.31523344  0.47243154  0.57092088    -0.07500
C1254       C  0.27839328  0.47177856  0.55318066     0.13400
C1255       C  0.27211346  0.45737190  0.51315257    -0.24300
H1256       H  0.21795252  0.48494516  0.56135965     0.14700
H1257       H  0.34301648  0.46184213  0.62481964     0.14700
C1258       C  0.28227618  0.44611950  0.67150889    -0.24200
H1259       H  0.25534711  0.42936706  0.51530308     0.04900
H1260       H  0.29945502  0.45173452  0.49716574     0.08200
H1261       H  0.25439593  0.47784344  0.49633845     0.08200
H1262       H  0.25278176  0.43936152  0.68371761     0.08100
H1263       H  0.29962976  0.46355619  0.69177895     0.08100
H1264       H  0.29632673  0.41748372  0.66818826     0.04900
C1265       C  0.80595776  0.52613241  0.76791239    -0.20900
C1266       C  0.78902367  0.49656319  0.74569948    -0.07500
C1267       C  0.76456012  0.46805342  0.76532318     0.13400
C1268       C  0.75440575  0.47291373  0.80404947    -0.20900
C1269       C  0.76893551  0.50416825  0.82502626    -0.07500
C1270       C  0.79626491  0.53035762  0.80699159     0.13400
C1271       C  0.81626604  0.56232443  0.82876811    -0.24300
H1272       H  0.82703968  0.54649117  0.75541287     0.14700
H1273       H  0.73461484  0.45175914  0.81805403     0.14700
C1274       C  0.74754439  0.43206031  0.74715287    -0.24200
H1275       H  0.83871903  0.57832206  0.81082764     0.04900
H1276       H  0.83096548  0.54973003  0.85411556     0.08200
H1277       H  0.79463363  0.58386188  0.83816157     0.08200
H1278       H  0.75609248  0.42834182  0.71683823     0.08100
H1279       H  0.71526244  0.43288728  0.74883441     0.08100
H1280       H  0.75712619  0.40575731  0.76317609     0.04900
C1281       C  0.68666557  0.51921767  0.63818263    -0.20900
C1282       C  0.71558766  0.49450869  0.62408614    -0.07500
C1283       C  0.70485781  0.46650589  0.59673582     0.13400
C1284       C  0.66565447  0.46321033  0.58559731    -0.20900
C1285       C  0.63685166  0.48759240  0.60025629    -0.07500
C1286       C  0.64781536  0.51583531  0.62726273     0.13400
C1287       C  0.61936222  0.54329594  0.64528053    -0.24300
H1288       H  0.69432247  0.54119773  0.65880404     0.14700
H1289       H  0.65812007  0.44321900  0.56343922     0.14700
C1290       C  0.73423570  0.44029855  0.57871834    -0.24200
H1291       H  0.61972324  0.53973106  0.67704470     0.04900
H1292       H  0.58903837  0.53818131  0.63635406     0.08200
H1293       H  0.62814680  0.57373917  0.63737161     0.08200
H1294       H  0.74963806  0.42428052  0.60134856     0.08100
H1295       H  0.75534862  0.45780731  0.56068955     0.08100
H1296       H  0.72032533  0.41855422  0.55990909     0.04900
C1297       C  0.01104753  0.30926465  0.30500944    -0.20900
C1298       C  0.99327690  0.27521778  0.32052033    -0.07500
C1299       C  0.97111250  0.25104685  0.29681410     0.13400
C1300       C  0.96848887  0.26077691  0.25780637    -0.20900
C1301       C  0.98755790  0.29412332  0.24117490    -0.07500
C1302       C  0.00647854  0.32032584  0.26633344     0.13400
C1303       C  0.01964855  0.36127186  0.25496441    -0.24300
H1304       H  0.02614097  0.32890932  0.32395079     0.14700
H1305       H  0.94968868  0.24267315  0.24091542     0.14700
C1306       C  0.95027771  0.21470101  0.31236454    -0.24200
H1307       H  0.00813487  0.38197357  0.27629269     0.04900
H1308       H  0.00861218  0.37126082  0.22692953     0.08200
H1309       H  0.05193555  0.36343422  0.25462557     0.08200
H1310       H  0.92699373  0.22237754  0.33324541     0.08100
H1311       H  0.97137123  0.19554990  0.32662899     0.08100
H1312       H  0.93638120  0.19785062  0.28927724     0.04900
C1313       C  0.01746129  0.26504828  0.70558472    -0.20900
C1314       C  0.98931637  0.27927239  0.68078114    -0.07500
C1315       C  0.96343416  0.30770105  0.69462451     0.13400
C1316       C  0.96433253  0.31841790  0.73339002    -0.20900
C1317       C  0.99092542  0.30237597  0.75929487    -0.07500
C1318       C  0.01957241  0.27693953  0.74392663     0.13400
C1319       C  0.05344270  0.26153980  0.76621658    -0.24300
H1320       H  0.03860842  0.24474116  0.69474717     0.14700
H1321       H  0.94465998  0.34057035  0.74262485     0.14700
C1322       C  0.93610668  0.32872085  0.66834815    -0.24200
H1323       H  0.08099655  0.26847715  0.75000800     0.04900
H1324       H  0.05031947  0.22938001  0.76973432     0.08200
H1325       H  0.05674044  0.27415956  0.79484799     0.08200
H1326       H  0.91392689  0.30806819  0.65744654     0.08100
H1327       H  0.95296056  0.34262375  0.64398179     0.08100
H1328       H  0.92022710  0.35208550  0.68327068     0.04900
C1329       C  0.87094435  0.45584485  0.40553022    -0.20900
C1330       C  0.83760808  0.44271804  0.38666285    -0.07500
C1331       C  0.82888321  0.40231847  0.38713514     0.13400
C1332       C  0.85500201  0.37607077  0.40381211    -0.20900
C1333       C  0.88941039  0.38870699  0.42165303    -0.07500
C1334       C  0.89669428  0.42976223  0.42325127     0.13400
C1335       C  0.93157041  0.44695941  0.44289076    -0.24300
H1336       H  0.87741370  0.48687821  0.40565982     0.14700
H1337       H  0.84817505  0.34523400  0.40285716     0.14700
C1338       C  0.79118817  0.38677102  0.37151411    -0.24200
H1339       H  0.93264191  0.47930549  0.44051864     0.04900
H1340       H  0.95880682  0.43622317  0.42949002     0.08200
H1341       H  0.93023247  0.43909029  0.47398712     0.08200
H1342       H  0.79005757  0.39227953  0.34010743     0.08100
H1343       H  0.76631162  0.40110482  0.38591592     0.08100
H1344       H  0.78768252  0.35483115  0.37666953     0.04900
C1345       C  0.87713781  0.44535930  0.61153961    -0.20900
C1346       C  0.84071230  0.43259185  0.62618275    -0.07500
C1347       C  0.83045718  0.39259131  0.62474923     0.13400
C1348       C  0.85547920  0.36714897  0.60578095    -0.20900
C1349       C  0.89146577  0.38005405  0.58939900    -0.07500
C1350       C  0.90283904  0.41982810  0.59348389     0.13400
C1351       C  0.94239875  0.43572377  0.58060898    -0.24300
H1352       H  0.88619032  0.47534412  0.61561222     0.14700
H1353       H  0.84660856  0.33675591  0.60403677     0.14700
C1354       C  0.79384272  0.37541191  0.64343260    -0.24200
H1355       H  0.94693506  0.46651539  0.58898437     0.04900
H1356       H  0.94545670  0.43508966  0.54885135     0.08200
H1357       H  0.96554789  0.41834342  0.59412176     0.08200
H1358       H  0.77597255  0.36097041  0.62144006     0.08100
H1359       H  0.77575372  0.39740270  0.65768490     0.08100
H1360       H  0.80166491  0.35329505  0.66552175     0.04900
C1361       C  0.06747140  0.40021543  0.62411225    -0.20900
C1362       C  0.08426755  0.38487678  0.59087545    -0.07500
C1363       C  0.12263501  0.39565139  0.57974172     0.13400
C1364       C  0.14328434  0.42229299  0.60180413    -0.20900
C1365       C  0.12650027  0.43877094  0.63472170    -0.07500
C1366       C  0.08823608  0.42667669  0.64667118     0.13400
C1367       C  0.06871377  0.44109578  0.68274523    -0.24300
H1368       H  0.03818827  0.39083134  0.63277320     0.14700
H1369       H  0.17275533  0.43059796  0.59295965     0.14700
C1370       C  0.14152763  0.37947747  0.54420612    -0.24200
H1371       H  0.03762867  0.43157552  0.68489700     0.04900
H1372       H  0.06976606  0.47332641  0.68356829     0.08200
H1373       H  0.08311858  0.42887670  0.70834030     0.08200
H1374       H  0.12424457  0.38711215  0.51863142     0.08100
H1375       H  0.14292625  0.34729846  0.54725390     0.08100
H1376       H  0.17163139  0.39125639  0.53933492     0.04900
C1377       C  0.09499315  0.43038392  0.43455909    -0.20900
C1378       C  0.09698391  0.39218241  0.42077170    -0.07500
C1379       C  0.12524369  0.38474134  0.39149456     0.13400
C1380       C  0.14996711  0.41514335  0.37757686    -0.20900
C1381       C  0.14574634  0.45401955  0.38877107    -0.07500
C1382       C  0.11840795  0.46134501  0.41889680     0.13400
C1383       C  0.11231387  0.50130900  0.43456811    -0.24300
H1384       H  0.07431895  0.43640042  0.45750032     0.14700
H1385       H  0.17178032  0.40866857  0.35583002     0.14700
C1386       C  0.12871278  0.34571316  0.37253311    -0.24200
H1387       H  0.08764013  0.50160498  0.45569806     0.04900
H1388       H  0.10536364  0.52189635  0.41106658     0.08200
H1389       H  0.13848649  0.51114587  0.44996095     0.08200
H1390       H  0.10044460  0.33714374  0.35997442     0.08100
H1391       H  0.13776365  0.32317441  0.39350172     0.08100
H1392       H  0.15082469  0.34643765  0.34876343     0.04900
C1393       C  0.11123440  0.06320344  0.60094385    -0.20900
C1394       C  0.12373927  0.07364232  0.63737450    -0.07500
C1395       C  0.11559900  0.11086145  0.65135501     0.13400
C1396       C  0.09528443  0.13690582  0.62823093    -0.20900
C1397       C  0.08239770  0.12671023  0.59155268    -0.07500
C1398       C  0.09083300  0.08916750  0.57763416     0.13400
C1399       C  0.07909035  0.07599188  0.53840789    -0.24300
H1400       H  0.11673988  0.03412435  0.59101000     0.14700
H1401       H  0.08876493  0.16527370  0.63957268     0.14700
C1402       C  0.12652008  0.12365286  0.69093571    -0.24200
H1403       H  0.09032836  0.04668413  0.53188054     0.04900
H1404       H  0.09106852  0.09674700  0.51608470     0.08200
H1405       H  0.04689317  0.07406748  0.53684062     0.08200
H1406       H  0.14212823  0.10115272  0.70744757     0.08100
H1407       H  0.09975560  0.13071913  0.70759948     0.08100
H1408       H  0.14560561  0.15013467  0.68844919     0.04900
C1409       C  0.88814378  0.09251884  0.58813114    -0.20900
C1410       C  0.91572246  0.11832178  0.60291268    -0.07500
C1411       C  0.92765838  0.11271020  0.64129996     0.13400
C1412       C  0.90997203  0.08268977  0.66457364    -0.20900
C1413       C  0.88069079  0.05812188  0.65026817    -0.07500
C1414       C  0.87051212  0.06269827  0.61107185     0.13400
C1415       C  0.84092595  0.03692087  0.59215579    -0.24300
H1416       H  0.87959310  0.09618022  0.55848243     0.14700
H1417       H  0.91806178  0.07926205  0.69435001     0.14700
C1418       C  0.95932679  0.13809493  0.65747820    -0.24200
H1419       H  0.85454225  0.02311882  0.56677934     0.04900
H1420       H  0.81617532  0.05469252  0.58253190     0.08200
H1421       H  0.82941637  0.01327941  0.61133408     0.08200
H1422       H  0.95035369  0.16897666  0.65719368     0.08100
H1423       H  0.98646683  0.13554633  0.63986865     0.08100
H1424       H  0.96575798  0.12943567  0.68756063     0.04900
C1425       C  0.86769961  0.12154828  0.40407894    -0.20900
C1426       C  0.90792995  0.12799924  0.40077085    -0.07500
C1427       C  0.92947437  0.10601993  0.37423238     0.13400
C1428       C  0.90988762  0.08016970  0.34984037    -0.20900
C1429       C  0.86920139  0.07370730  0.35245201    -0.07500
C1430       C  0.84828025  0.09373780  0.38172825     0.13400
C1431       C  0.80651088  0.08407700  0.39279893    -0.24300
H1432       H  0.85149141  0.13752437  0.42544902     0.14700
H1433       H  0.92689192  0.06466464  0.32888600     0.14700
C1434       C  0.97322727  0.10972896  0.37166386    -0.24200
H1435       H  0.79803770  0.09708173  0.42063065     0.04900
H1436       H  0.80261381  0.05209871  0.39664581     0.08200
H1437       H  0.78646623  0.09611825  0.37140312     0.08200
H1438       H  0.98577666  0.10026100  0.39935914     0.08100
H1439       H  0.98217373  0.14043820  0.36545366     0.08100
H1440       H  0.98567495  0.09142606  0.34871303     0.04900
C1441       C  0.10153076  0.11266546  0.33542052    -0.20900
C1442       C  0.11542576  0.07833254  0.35194644    -0.07500
C1443       C  0.11390618  0.07315537  0.39231935     0.13400
C1444       C  0.09441193  0.10042305  0.41475207    -0.20900
C1445       C  0.07958626  0.13451840  0.39820446    -0.07500
C1446       C  0.08410544  0.14116920  0.35797467     0.13400
C1447       C  0.07060038  0.17796079  0.33839114    -0.24300
H1448       H  0.10603424  0.11806008  0.30493231     0.14700
H1449       H  0.09239262  0.09604879  0.44563009     0.14700
C1450       C  0.13507668  0.04064095  0.41212816    -0.24200
H1451       H  0.07419923  0.17683611  0.30665217     0.04900
H1452       H  0.08799145  0.20339688  0.34802916     0.08200
H1453       H  0.03934194  0.18232191  0.34516009     0.08200
H1454       H  0.16684621  0.04484185  0.40695032     0.08100
H1455       H  0.12614883  0.01196358  0.40117852     0.08100
H1456       H  0.12959589  0.04020075  0.44369235     0.04900
C1457       C  0.96255115  0.74825395  0.29525467    -0.20900
C1458       C  0.99385789  0.73852869  0.31837947    -0.07500
C1459       C  0.02478188  0.71743182  0.30179009     0.13400
C1460       C  0.02331507  0.70684650  0.26304097    -0.20900
C1461       C  0.99177767  0.71622534  0.23940203    -0.07500
C1462       C  0.96097069  0.73785062  0.25647912     0.13400
C1463       C  0.92556737  0.75146087  0.23556722    -0.24300
H1464       H  0.93877120  0.76450248  0.30757264     0.14700
H1465       H  0.04771977  0.69128289  0.25196476     0.14700
C1466       C  0.05911027  0.70447341  0.32480309    -0.24200
H1467       H  0.92492987  0.78380875  0.23556179     0.04900
H1468       H  0.89886488  0.73965736  0.25054247     0.08200
H1469       H  0.92422434  0.74242124  0.20563815     0.08200
H1470       H  0.04856250  0.68691358  0.35015602     0.08100
H1471       H  0.07630225  0.73017603  0.33411800     0.08100
H1472       H  0.07915809  0.68606172  0.30796490     0.04900
C1473       C  0.96087196  0.74355577  0.70233129    -0.20900
C1474       C  0.98778789  0.72812265  0.67651933    -0.07500
C1475       C  0.01419254  0.70009534  0.68964583     0.13400
C1476       C  0.01488033  0.69049276  0.72881182    -0.20900
C1477       C  0.99084740  0.70895420  0.75590476    -0.07500
C1478       C  0.96152024  0.73417038  0.74173834     0.13400
C1479       C  0.93013905  0.75125982  0.76709307    -0.24300
H1480       H  0.93959674  0.76372965  0.69158409     0.14700
H1481       H  0.03446614  0.66808978  0.73744152     0.14700
C1482       C  0.04120222  0.67927248  0.66250633    -0.24200
H1483       H  0.90972606  0.76906633  0.75014795     0.04900
H1484       H  0.94244705  0.77081446  0.78873363     0.08200
H1485       H  0.91237917  0.72776444  0.78155753     0.08200
H1486       H  0.06289688  0.70018373  0.64939435     0.08100
H1487       H  0.02413850  0.66516728  0.63971559     0.08100
H1488       H  0.05775505  0.65620321  0.67741582     0.04900
C1489       C  0.07283765  0.61419150  0.38538726    -0.20900
C1490       C  0.09115226  0.63926731  0.41080460    -0.07500
C1491       C  0.13157362  0.63702324  0.41639759     0.13400
C1492       C  0.15292624  0.60975273  0.39576517    -0.20900
C1493       C  0.13474756  0.58519623  0.36956774    -0.07500
C1494       C  0.09410022  0.58725224  0.36442377     0.13400
C1495       C  0.07259615  0.56010909  0.33835958    -0.24300
H1496       H  0.04173181  0.61604320  0.38168746     0.14700
H1497       H  0.18391000  0.60732766  0.40027226     0.14700
C1498       C  0.15184883  0.66225271  0.44505592    -0.24200
H1499       H  0.04060951  0.56390297  0.34049522     0.04900
H1500       H  0.07862638  0.52932117  0.34614649     0.08200
H1501       H  0.08163565  0.56621810  0.30807603     0.08200
H1502       H  0.13838852  0.65717728  0.47407516     0.08100
H1503       H  0.14935486  0.69345699  0.43666210     0.08100
H1504       H  0.18329419  0.65568899  0.44669798     0.04900
C1505       C  0.07935134  0.59344672  0.58297630    -0.20900
C1506       C  0.09293931  0.63243323  0.58209350    -0.07500
C1507       C  0.12960644  0.64069883  0.59883526     0.13400
C1508       C  0.14992786  0.61043721  0.61731894    -0.20900
C1509       C  0.13562803  0.57174969  0.61880323    -0.07500
C1510       C  0.10000371  0.56327791  0.60071378     0.13400
C1511       C  0.08213959  0.52290530  0.60150321    -0.24300
H1512       H  0.05165761  0.58636148  0.57028152     0.14700
H1513       H  0.17728883  0.61702729  0.63094050     0.14700
C1514       C  0.14831038  0.68085441  0.59683312    -0.24200
H1515       H  0.10103888  0.50275231  0.58562364     0.04900
H1516       H  0.05323003  0.52200803  0.58785312     0.08200
H1517       H  0.07791128  0.51282937  0.63165671     0.08200
H1518       H  0.13055573  0.70155756  0.61339311     0.08100
H1519       H  0.15140482  0.69098391  0.56639089     0.08100
H1520       H  0.17783489  0.68114514  0.60921899     0.04900
C1521       C  0.86260767  0.63014629  0.61012937    -0.20900
C1522       C  0.88859299  0.61943691  0.58047982    -0.07500
C1523       C  0.88662339  0.58017527  0.56808305     0.13400
C1524       C  0.86116581  0.55295723  0.58737002    -0.20900
C1525       C  0.83697068  0.56357343  0.61836115    -0.07500
C1526       C  0.83604086  0.60348501  0.62788432     0.13400
C1527       C  0.80594252  0.61980192  0.65497480    -0.24300
H1528       H  0.86203172  0.66014397  0.61920472     0.14700
H1529       H  0.86059352  0.52303546  0.57831171     0.14700
C1530       C  0.91037596  0.56648536  0.53423583    -0.24200
H1531       H  0.79123322  0.64438986  0.64045706     0.04900
H1532       H  0.82027720  0.63080627  0.68100266     0.08200
H1533       H  0.78269556  0.59833379  0.66358805     0.08200
H1534       H  0.94187293  0.56886354  0.54035640     0.08100
H1535       H  0.90379409  0.58422333  0.50821307     0.08100
H1536       H  0.90376878  0.53549677  0.52781765     0.04900
C1537       C  0.85883552  0.62834768  0.41540515    -0.20900
C1538       C  0.89928596  0.62685610  0.41086020    -0.07500
C1539       C  0.91598547  0.59734591  0.38857490     0.13400
C1540       C  0.89141481  0.56985286  0.37133233    -0.20900
C1541       C  0.85085232  0.57113172  0.37647799    -0.07500
C1542       C  0.83443245  0.60076985  0.39877770     0.13400
C1543       C  0.79121962  0.60439423  0.40436400    -0.24300
H1544       H  0.84624664  0.65115343  0.43250996     0.14700
H1545       H  0.90381397  0.54713576  0.35402263     0.14700
C1546       C  0.95932171  0.59560851  0.38190665    -0.24200
H1547       H  0.77925884  0.57873949  0.42077232     0.04900
H1548       H  0.77768644  0.60692151  0.37592764     0.08200
H1549       H  0.78355285  0.63067164  0.42075677     0.08200
H1550       H  0.97397873  0.59055027  0.40959701     0.08100
H1551       H  0.97027186  0.62348149  0.36847985     0.08100
H1552       H  0.96721637  0.57158663  0.36253051     0.04900
C1553       C  0.09185667  0.88372172  0.36381615    -0.20900
C1554       C  0.06833622  0.89626812  0.39477387    -0.07500
C1555       C  0.06099090  0.93687526  0.39659159     0.13400
C1556       C  0.07694788  0.96280274  0.36806087    -0.20900
C1557       C  0.10205915  0.95019835  0.33871429    -0.07500
C1558       C  0.10806184  0.90968348  0.33578035     0.13400
C1559       C  0.13017524  0.89238707  0.30259536    -0.24300
H1560       H  0.09751269  0.85298900  0.36076333     0.14700
H1561       H  0.07118316  0.99361283  0.36986477     0.14700
C1562       C  0.03719379  0.95376678  0.42864855    -0.24200
H1563       H  0.11162450  0.86986509  0.28907075     0.04900
H1564       H  0.15689240  0.87847153  0.31319593     0.08200
H1565       H  0.13835530  0.91418758  0.27975131     0.08200
H1566       H  0.05044444  0.94686269  0.45671854     0.08100
H1567       H  0.00728970  0.94154202  0.42787342     0.08100
H1568       H  0.03533218  0.98598346  0.42588456     0.04900
C1569       C  0.87465418  0.87505603  0.37226908    -0.20900
C1570       C  0.89507183  0.88704684  0.40484877    -0.07500
C1571       C  0.89651935  0.92757971  0.41305639     0.13400
C1572       C  0.87958538  0.95426011  0.38779361    -0.20900
C1573       C  0.86026762  0.94208718  0.35517876    -0.07500
C1574       C  0.85718300  0.90193798  0.34745692     0.13400
C1575       C  0.83713639  0.88722627  0.31230608    -0.24300
H1576       H  0.87284891  0.84441448  0.36552439     0.14700
H1577       H  0.88131928  0.98517945  0.39357189     0.14700
C1578       C  0.91497958  0.94380389  0.44833376    -0.24200
H1579       H  0.84028360  0.85529255  0.30926611     0.04900
H1580       H  0.84991806  0.90179215  0.28609588     0.08200
H1581       H  0.80555141  0.89289003  0.31422945     0.08200
H1582       H  0.94645712  0.93828162  0.44814325     0.08100
H1583       H  0.90104379  0.93027488  0.47424957     0.08100
H1584       H  0.91157312  0.97581875  0.45032391     0.04900
C1585       C  0.84890314  0.92810593  0.61181095    -0.20900
C1586       C  0.86150660  0.93065479  0.64981509    -0.07500
C1587       C  0.88947850  0.90409651  0.66314294     0.13400
C1588       C  0.90625589  0.87809143  0.63736195    -0.20900
C1589       C  0.89530888  0.87742354  0.59892016    -0.07500
C1590       C  0.86535119  0.90159894  0.58634006     0.13400
C1591       C  0.84978589  0.89824804  0.54660941    -0.24300
H1592       H  0.82614281  0.94691668  0.60190003     0.14700
H1593       H  0.92821354  0.85818685  0.64719720     0.14700
C1594       C  0.90050955  0.90141057  0.70468242    -0.24200
H1595       H  0.82667397  0.91963212  0.54098876     0.04900
H1596       H  0.83757801  0.86841840  0.54310176     0.08200
H1597       H  0.87361997  0.90344205  0.52531885     0.08200
H1598       H  0.87392127  0.89781161  0.72321693     0.08100
H1599       H  0.91718869  0.92775460  0.71252130     0.08100
H1600       H  0.91936288  0.87613849  0.71046052     0.04900
C1601       C  0.10472780  0.91011710  0.57851781    -0.20900
C1602       C  0.07110871  0.89115425  0.59364389    -0.07500
C1603       C  0.05847981  0.89897571  0.63151407     0.13400
C1604       C  0.07974173  0.92567482  0.65340324    -0.20900
C1605       C  0.11391852  0.94407966  0.63875162    -0.07500
C1606       C  0.12669448  0.93600289  0.60073497     0.13400
C1607       C  0.16352916  0.95409232  0.58333838    -0.24300
H1608       H  0.11453027  0.90360531  0.54958789     0.14700
H1609       H  0.07019353  0.93143988  0.68250609     0.14700
C1610       C  0.02249796  0.87914487  0.64877036    -0.24200
H1611       H  0.16707783  0.94715180  0.55245903     0.04900
H1612       H  0.18908922  0.94246659  0.59825598     0.08200
H1613       H  0.16334604  0.98623726  0.58566107     0.08200
H1614       H  0.02627722  0.84709319  0.64979981     0.08100
H1615       H  0.99703069  0.88606219  0.63098062     0.08100
H1616       H  0.01632939  0.88884808  0.67848394     0.04900
C1617       C  0.22251697  0.83460478  0.47975305    -0.20900
C1618       C  0.24453040  0.81902890  0.50988458    -0.07500
C1619       C  0.22461461  0.79750478  0.53993829     0.13400
C1620       C  0.18627394  0.78528904  0.53448800    -0.20900
C1621       C  0.16599962  0.79655901  0.50169503    -0.07500
C1622       C  0.18349315  0.82371486  0.47526245     0.13400
C1623       C  0.16124573  0.84233295  0.44300731    -0.24300
H1624       H  0.23522386  0.85528905  0.45922638     0.14700
H1625       H  0.17199806  0.76661035  0.55623878     0.14700
C1626       C  0.24280352  0.78711901  0.57801205    -0.24200
H1627       H  0.17902147  0.86494599  0.42696922     0.04900
H1628       H  0.13507031  0.85668005  0.45486993     0.08200
H1629       H  0.15245989  0.82008225  0.42205752     0.08200
H1630       H  0.25192062  0.81401519  0.59270693     0.08100
H1631       H  0.26802107  0.76792696  0.57469102     0.08100
H1632       H  0.22176198  0.77138229  0.59777503     0.04900
C1633       C  0.35267114  0.71239472  0.48817654    -0.20900
C1634       C  0.36246959  0.73975788  0.51570338    -0.07500
C1635       C  0.38274520  0.72779329  0.54862543     0.13400
C1636       C  0.39451430  0.68879459  0.55218179    -0.20900
C1637       C  0.38553150  0.66168620  0.52387104    -0.07500
C1638       C  0.36299554  0.67355619  0.49218856     0.13400
C1639       C  0.34903238  0.64607811  0.46190229    -0.24300
H1640       H  0.33568284  0.72127509  0.46369509     0.14700
H1641       H  0.41207593  0.67990780  0.57618680     0.14700
C1642       C  0.39114016  0.75582459  0.58020134    -0.24200
H1643       H  0.31679166  0.64680864  0.46056323     0.04900
H1644       H  0.35684945  0.61559115  0.46788861     0.08200
H1645       H  0.36172316  0.65512768  0.43341550     0.08200
H1646       H  0.36342061  0.76745637  0.59171650     0.08100
H1647       H  0.40990623  0.78032698  0.56888472     0.08100
H1648       H  0.40640402  0.74149679  0.60429471     0.04900
C1649       C  0.24219434  0.25446345  0.48176359    -0.20900
C1650       C  0.25377333  0.21683206  0.49369440    -0.07500
C1651       C  0.22363801  0.18878273  0.50296447     0.13400
C1652       C  0.18491506  0.20092574  0.50701494    -0.20900
C1653       C  0.17445104  0.23923190  0.49797056    -0.07500
C1654       C  0.20318272  0.26579089  0.48364009     0.13400
C1655       C  0.19275501  0.30622512  0.47042312    -0.24300
H1656       H  0.26332188  0.27529012  0.46978189     0.14700
H1657       H  0.16228287  0.17970786  0.51539514     0.14700
C1658       C  0.23024098  0.14557094  0.50691151    -0.24200
H1659       H  0.21871182  0.32359558  0.46018132     0.04900
H1660       H  0.17883823  0.32179747  0.49444338     0.08200
H1661       H  0.17225855  0.30439398  0.44642546     0.08200
H1662       H  0.22347959  0.13551607  0.53687738     0.08100
H1663       H  0.26014606  0.13718800  0.49895349     0.08100
H1664       H  0.21063600  0.12977150  0.48731023     0.04900
C1665       C  0.38067422  0.28886568  0.54596090    -0.20900
C1666       C  0.39116695  0.26687025  0.51376065    -0.07500
C1667       C  0.42388454  0.27903808  0.49101225     0.13400
C1668       C  0.44252011  0.31468773  0.49843887    -0.20900
C1669       C  0.42919622  0.33829763  0.52800417    -0.07500
C1670       C  0.39926979  0.32455369  0.55331422     0.13400
C1671       C  0.38506478  0.34775183  0.58691908    -0.24300
H1672       H  0.35596845  0.27951754  0.56397317     0.14700
H1673       H  0.46573884  0.32563297  0.47925263     0.14700
C1674       C  0.43749168  0.25641186  0.45716737    -0.24200
H1675       H  0.38790741  0.33020154  0.61383773     0.04900
H1676       H  0.35397201  0.35483740  0.58324825     0.08200
H1677       H  0.40183172  0.37541228  0.59016074     0.08200
H1678       H  0.46283760  0.27082092  0.44195415     0.08100
H1679       H  0.41349514  0.25406575  0.43649567     0.08100
H1680       H  0.44680693  0.22726891  0.46721150     0.04900
C1681       C  0.74627015  0.29841189  0.01882834    -0.20900
C1682       C  0.71664285  0.32451016  0.01141926    -0.07500
C1683       C  0.67808538  0.31041269  0.00859306     0.13400
C1684       C  0.67143084  0.27034261  0.00396327    -0.20900
C1685       C  0.70205554  0.24379566  0.00682151    -0.07500
C1686       C  0.73842398  0.25819506  0.02033519     0.13400
C1687       C  0.76773340  0.23334644  0.04055447    -0.24300
H1688       H  0.77496835  0.30955026  0.02584498     0.14700
H1689       H  0.64205753  0.25962202  0.99938626     0.14700
C1690       C  0.64413638  0.33699236  0.01434505    -0.24200
H1691       H  0.77528283  0.24677840  0.06824971     0.04900
H1692       H  0.79475475  0.23160164  0.02266283     0.08200
H1693       H  0.75621405  0.20375120  0.04821152     0.08200
H1694       H  0.64676068  0.36320147  0.99540673     0.08100
H1695       H  0.64372921  0.34701063  0.04446456     0.08100
H1696       H  0.61592713  0.32185482  0.00913044     0.04900
C1697       C  0.80143806  0.06396554  0.98437713    -0.20900
C1698       C  0.83050841  0.08190193  0.96036633    -0.07500
C1699       C  0.82046773  0.11379798  0.93673155     0.13400
C1700       C  0.78280117  0.12889254  0.94035139    -0.20900
C1701       C  0.75553092  0.11403431  0.96820992    -0.07500
C1702       C  0.76457302  0.08004459  0.98938666     0.13400
C1703       C  0.73730891  0.06245580  0.01986555    -0.24300
H1704       H  0.80865466  0.03866548  0.00178014     0.14700
H1705       H  0.77564484  0.15457667  0.92350849     0.14700
C1706       C  0.84995367  0.13384476  0.91002848    -0.24200
H1707       H  0.75061381  0.03767395  0.03545230     0.04900
H1708       H  0.71055803  0.05094642  0.00658281     0.08200
H1709       H  0.72979356  0.08465382  0.04137272     0.08200
H1710       H  0.86031747  0.11307816  0.88824353     0.08100
H1711       H  0.87503018  0.14473530  0.92662393     0.08100
H1712       H  0.83740088  0.15911404  0.89457883     0.04900
C1713       C  0.30437125  0.27249430  0.98098177    -0.20900
C1714       C  0.28680173  0.24577019  0.00771936    -0.07500
C1715       C  0.25780070  0.26028854  0.03353246     0.13400
C1716       C  0.24495506  0.29864017  0.02892577    -0.20900
C1717       C  0.26118497  0.32416047  0.00082967    -0.07500
C1718       C  0.29229331  0.31120011  0.97748181     0.13400
C1719       C  0.31443782  0.33849306  0.95007171    -0.24300
H1720       H  0.32840484  0.26408749  0.96292157     0.14700
H1721       H  0.22231349  0.30898555  0.04812524     0.14700
C1722       C  0.23914023  0.23702066  0.06665126    -0.24200
H1723       H  0.33954127  0.32425160  0.93596620     0.04900
H1724       H  0.32601407  0.36376356  0.96596478     0.08200
H1725       H  0.29499037  0.34859620  0.92708335     0.08200
H1726       H  0.25065402  0.20756397  0.07097464     0.08100
H1727       H  0.20734133  0.23397886  0.06214915     0.08100
H1728       H  0.24378162  0.25277424  0.09376705     0.04900
C1729       C  0.20648947  0.12790578  0.96431660    -0.20900
C1730       C  0.23308235  0.11112383  0.98983822    -0.07500
C1731       C  0.22559253  0.07204145  0.00300591     0.13400
C1732       C  0.19012452  0.05348145  0.99384569    -0.20900
C1733       C  0.16198960  0.07293314  0.97267324    -0.07500
C1734       C  0.17033665  0.11057686  0.95763190     0.13400
C1735       C  0.14064576  0.13358997  0.93602195    -0.24300
H1736       H  0.21289270  0.15615332  0.95096865     0.14700
H1737       H  0.18315959  0.02451255  0.00542834     0.14700
C1738       C  0.25340606  0.04934334  0.02710517    -0.24200
H1739       H  0.15210308  0.16287083  0.92672734     0.04900
H1740       H  0.11436575  0.13799272  0.95435068     0.08200
H1741       H  0.13239476  0.11793134  0.91004297     0.08200
H1742       H  0.26244340  0.06632294  0.05205655     0.08100
H1743       H  0.27901431  0.04134229  0.00928680     0.08100
H1744       H  0.23999114  0.02156569  0.03842578     0.04900
C1745       C  0.73811831  0.75708428  0.51602225    -0.20900
C1746       C  0.72752083  0.79598597  0.50746030    -0.07500
C1747       C  0.75821191  0.82384957  0.49987835     0.13400
C1748       C  0.79651898  0.81118377  0.49501279    -0.20900
C1749       C  0.80617167  0.77226256  0.50142869    -0.07500
C1750       C  0.77697286  0.74511867  0.51340662     0.13400
C1751       C  0.78682881  0.70349204  0.52309925    -0.24300
H1752       H  0.71657129  0.73569756  0.52592723     0.14700
H1753       H  0.81950687  0.83232303  0.48757173     0.14700
C1754       C  0.75252770  0.86733951  0.49749088    -0.24200
H1755       H  0.76046744  0.68563971  0.53117579     0.04900
H1756       H  0.80686483  0.70264496  0.54768046     0.08200
H1757       H  0.80114887  0.69007523  0.49787300     0.08200
H1758       H  0.72259832  0.87635873  0.50433710     0.08100
H1759       H  0.76093719  0.87856914  0.46827928     0.08100
H1760       H  0.77128629  0.88173606  0.51868508     0.04900
C1761       C  0.55689581  0.74587333  0.51632640    -0.20900
C1762       C  0.58643942  0.75528853  0.48914630    -0.07500
C1763       C  0.59010782  0.73270781  0.45564642     0.13400
C1764       C  0.56723052  0.69875874  0.45241682    -0.20900
C1765       C  0.54058440  0.68720210  0.48150562    -0.07500
C1766       C  0.53377737  0.71191570  0.51280062     0.13400
C1767       C  0.50293793  0.70166519  0.54293717    -0.24300
H1768       H  0.55372624  0.76355178  0.54159942     0.14700
H1769       H  0.57217892  0.67981375  0.42832034     0.14700
C1770       C  0.61888512  0.74261223  0.42343737    -0.24200
H1771       H  0.50116058  0.72414528  0.56536022     0.04900
H1772       H  0.50922855  0.67333335  0.55718449     0.08200
H1773       H  0.47424394  0.69945614  0.52906091     0.08200
H1774       H  0.64035371  0.71901211  0.42093091     0.08100
H1775       H  0.63484704  0.77049180  0.42745902     0.08100
H1776       H  0.60317268  0.74535600  0.39601560     0.04900
C1777       C  0.72813420  0.71130311  0.96856553    -0.20900
C1778       C  0.72332777  0.68881210  0.00260585    -0.07500
C1779       C  0.70699935  0.70669423  0.03542787     0.13400
C1780       C  0.69299978  0.74457639  0.03205897    -0.20900
C1781       C  0.69494943  0.76646573  0.99725254    -0.07500
C1782       C  0.71577703  0.75011482  0.96584698     0.13400
C1783       C  0.72709038  0.77324066  0.92981909    -0.24300
H1784       H  0.74230254  0.69859860  0.94384392     0.14700
H1785       H  0.68251973  0.75769894  0.05808717     0.14700
C1786       C  0.70464004  0.68709361  0.07475452    -0.24200
H1787       H  0.74795829  0.75730623  0.91144638     0.04900
H1788       H  0.74160176  0.80121946  0.93707396     0.08200
H1789       H  0.70127751  0.77844892  0.91218332     0.08200
H1790       H  0.73435995  0.68049739  0.08455968     0.08100
H1791       H  0.68668858  0.65997083  0.07400210     0.08100
H1792       H  0.69106171  0.70580853  0.09673451     0.04900
C1793       C  0.76251475  0.92036907  0.98094542    -0.20900
C1794       C  0.74761916  0.90087160  0.01389523    -0.07500
C1795       C  0.76783652  0.90353262  0.04873915     0.13400
C1796       C  0.80330923  0.92464552  0.04950310    -0.20900
C1797       C  0.81933196  0.94213348  0.01591761    -0.07500
C1798       C  0.79842213  0.94050556  0.98134525     0.13400
C1799       C  0.81446321  0.95899510  0.94445010    -0.24300
H1800       H  0.74712939  0.91777616  0.95422135     0.14700
H1801       H  0.81962691  0.92559597  0.07578038     0.14700
C1802       C  0.75236542  0.88358051  0.08489392    -0.24200
H1803       H  0.79362239  0.95629848  0.92066673     0.04900
H1804       H  0.84163819  0.94459122  0.93540310     0.08200
H1805       H  0.82069942  0.99043292  0.94858714     0.08200
H1806       H  0.74976545  0.85168669  0.08062052     0.08100
H1807       H  0.72347974  0.89553062  0.09231051     0.08100
H1808       H  0.77177611  0.88844017  0.10950672     0.04900
C1809       C  0.25892465  0.70799409  0.03519324    -0.20900
C1810       C  0.26909336  0.68638942  0.00296733    -0.07500
C1811       C  0.29476008  0.70342271  0.97471650     0.13400
C1812       C  0.30659619  0.74244745  0.97796582    -0.20900
C1813       C  0.29302496  0.76565459  0.00815081    -0.07500
C1814       C  0.27103061  0.74685984  0.03874031     0.13400
C1815       C  0.25844874  0.76628601  0.07543689    -0.24300
H1816       H  0.24100529  0.69450175  0.05801584     0.14700
H1817       H  0.32671956  0.75415285  0.95640831     0.14700
C1818       C  0.31096032  0.68071154  0.94149923    -0.24200
H1819       H  0.26961979  0.74963599  0.10042221     0.04900
H1820       H  0.22615473  0.76618504  0.07761209     0.08200
H1821       H  0.26894644  0.79665227  0.07807732     0.08200
H1822       H  0.28718248  0.67213781  0.92216091     0.08100
H1823       H  0.32581404  0.65444037  0.95247751     0.08100
H1824       H  0.33260278  0.69810309  0.92383224     0.04900
C1825       C  0.17422120  0.92842792  0.04532421    -0.20900
C1826       C  0.14451377  0.91299605  0.02269530    -0.07500
C1827       C  0.15383603  0.88506176  0.99491209     0.13400
C1828       C  0.19241952  0.87484172  0.98915017    -0.20900
C1829       C  0.22217709  0.88917671  0.01230987    -0.07500
C1830       C  0.21298094  0.91622858  0.04101508     0.13400
C1831       C  0.24344293  0.93171487  0.06745365    -0.24300
H1832       H  0.16748394  0.95103064  0.06532369     0.14700
H1833       H  0.19913815  0.85388781  0.96718816     0.14700
C1834       C  0.12374262  0.86557413  0.97036502    -0.24200
H1835       H  0.23073753  0.95138853  0.08909751     0.04900
H1836       H  0.26605382  0.94866437  0.05073404     0.08200
H1837       H  0.25706725  0.90717277  0.08305288     0.08200
H1838       H  0.12984676  0.87324471  0.93968338     0.08100
H1839       H  0.09360162  0.87391878  0.97775612     0.08100
H1840       H  0.12514932  0.83344766  0.97432957     0.04900
C1841       C  0.24599189  0.99489234  0.25824193    -0.20900
C1842       C  0.23132234  0.00787320  0.29393910    -0.07500
C1843       C  0.25817898  0.01271060  0.32405890     0.13400
C1844       C  0.29829803  0.01255285  0.31535186    -0.20900
C1845       C  0.31211868  0.00384550  0.27844108    -0.07500
C1846       C  0.28580237  0.99421302  0.24979253     0.13400
C1847       C  0.29970789  0.98457777  0.20984503    -0.24300
H1848       H  0.22636442  0.98554525  0.23622013     0.14700
H1849       H  0.31895259  0.01804280  0.33781457     0.14700
C1850       C  0.24627771  0.01510651  0.36583171    -0.24200
H1851       H  0.27521660  0.97749879  0.19071467     0.04900
H1852       H  0.31880247  0.95917384  0.21129908     0.08200
H1853       H  0.31647457  0.00976318  0.19691738     0.08200
H1854       H  0.21509776  0.00798521  0.37122668     0.08100
H1855       H  0.25337630  0.04459135  0.37655221     0.08100
H1856       H  0.26250261  0.99328890  0.38281816     0.04900
C1857       C  0.68666557  0.01792850  0.29805440    -0.20900
C1858       C  0.67568518  0.00725466  0.26133147    -0.07500
C1859       C  0.70415706  0.99585624  0.23454606     0.13400
C1860       C  0.74349885  0.99713844  0.24476284    -0.20900
C1861       C  0.75538596  0.00894523  0.28161369    -0.07500
C1862       C  0.72550764  0.01701525  0.30925704     0.13400
C1863       C  0.73217938  0.02299889  0.35140839    -0.24300
H1864       H  0.66424373  0.02513102  0.31902019     0.14700
H1865       H  0.76424361  0.98693750  0.22388622     0.14700
C1866       C  0.69310193  0.98248972  0.19519652    -0.24200
H1867       H  0.71254634  0.00298732  0.36869222     0.04900
H1868       H  0.72547410  0.05347275  0.35880666     0.08200
H1869       H  0.76182841  0.01638507  0.36037351     0.08200
H1870       H  0.67738908  0.00589251  0.17994341     0.08100
H1871       H  0.67399023  0.95605029  0.19786397     0.08100
H1872       H  0.71904508  0.97518711  0.17738566     0.04900
C1873       C  0.36137698  0.89858269  0.43593027    -0.20900
C1874       C  0.37122816  0.85936007  0.44169212    -0.07500
C1875       C  0.39968157  0.84272262  0.41772390     0.13400
C1876       C  0.41798100  0.86605254  0.38870623    -0.20900
C1877       C  0.40862793  0.90544854  0.38383130    -0.07500
C1878       C  0.37993571  0.92191394  0.40749452     0.13400
C1879       C  0.36796911  0.96366307  0.40192022    -0.24300
H1880       H  0.33900008  0.91106412  0.45403341     0.14700
H1881       H  0.43952792  0.85356291  0.36968852     0.14700
C1882       C  0.40948152  0.80027735  0.42156037    -0.24200
H1883       H  0.34411737  0.97141463  0.42222243     0.04900
H1884       H  0.35756840  0.96821713  0.37223512     0.08200
H1885       H  0.39312180  0.98364733  0.40669503     0.08200
H1886       H  0.38274356  0.78195140  0.41860248     0.08100
H1887       H  0.42226644  0.79425345  0.44997021     0.08100
H1888       H  0.43095910  0.79172988  0.39914057     0.04900
C1889       C  0.61999055  0.92331752  0.39075767    -0.20900
C1890       C  0.58501908  0.90945953  0.37573886    -0.07500
C1891       C  0.56937047  0.87298628  0.38817820     0.13400
C1892       C  0.58813141  0.85185022  0.41693880    -0.20900
C1893       C  0.62289661  0.86574116  0.43272321    -0.07500
C1894       C  0.63983108  0.90142492  0.41843193     0.13400
C1895       C  0.67852339  0.91688370  0.43176813    -0.24300
H1896       H  0.63205705  0.95111076  0.38031739     0.14700
H1897       H  0.57549610  0.82426343  0.42722467     0.14700
C1898       C  0.53253888  0.85671833  0.37140873    -0.24200
H1899       H  0.68493714  0.94685727  0.42036866     0.04900
H1900       H  0.70219652  0.89818437  0.42125020     0.08200
H1901       H  0.67906119  0.91778926  0.46342406     0.08200
H1902       H  0.53681356  0.85293558  0.34000903     0.08100
H1903       H  0.50840109  0.87711139  0.37642636     0.08100
H1904       H  0.52399612  0.82794909  0.38456884     0.04900
C1905       C  0.37773882  0.08719002  0.40422821    -0.20900
C1906       C  0.41136297  0.10084282  0.38431798    -0.07500
C1907       C  0.42603742  0.13863654  0.39137380     0.13400
C1908       C  0.40618980  0.16224213  0.41748773    -0.20900
C1909       C  0.37183798  0.14939994  0.43673922    -0.07500
C1910       C  0.35775830  0.11093605  0.43033790     0.13400
C1911       C  0.32214002  0.09434193  0.45131433    -0.24300
H1912       H  0.36659439  0.05811941  0.39866813     0.14700
H1913       H  0.41711911  0.19121873  0.42193004     0.14700
C1914       C  0.46265760  0.15410637  0.37122535    -0.24200
H1915       H  0.31749174  0.06293715  0.44537606     0.04900
H1916       H  0.29583981  0.10966860  0.44189398     0.08200
H1917       H  0.32536239  0.09727471  0.48278475     0.08200
H1918       H  0.45853467  0.15516675  0.33968391     0.08100
H1919       H  0.48728212  0.13479460  0.37783716     0.08100
H1920       H  0.47054163  0.18398104  0.38046883     0.04900
C1921       C  0.46271049  0.24159190  0.19525732    -0.20900
C1922       C  0.48902566  0.26868813  0.21088256    -0.07500
C1923       C  0.51898065  0.25379640  0.23473158     0.13400
C1924       C  0.51983439  0.21358962  0.24347580    -0.20900
C1925       C  0.49218041  0.18755881  0.22912217    -0.07500
C1926       C  0.46393226  0.20171143  0.20379549     0.13400
C1927       C  0.43556841  0.17489023  0.18422890    -0.24300
H1928       H  0.44024762  0.25060636  0.17637221     0.14700
H1929       H  0.54207473  0.20234624  0.26207165     0.14700
C1930       C  0.55064388  0.27929668  0.25131032    -0.24200
H1931       H  0.41796281  0.19050642  0.16265045     0.04900
H1932       H  0.41482859  0.16124295  0.20559744     0.08200
H1933       H  0.45191342  0.15218860  0.16893754     0.08200
H1934       H  0.53833966  0.30230684  0.26940199     0.08100
H1935       H  0.56933186  0.29263564  0.22810571     0.08100
H1936       H  0.57020055  0.26222312  0.26991509     0.04900
C1937       C  0.47337696  0.77024876  0.18760921    -0.20900
C1938       C  0.49440831  0.74332928  0.20969761    -0.07500
C1939       C  0.51862451  0.75857030  0.23902589     0.13400
C1940       C  0.51603828  0.79790279  0.24889448    -0.20900
C1941       C  0.49312326  0.82370988  0.22820895    -0.07500
C1942       C  0.47360202  0.81016082  0.19567044     0.13400
C1943       C  0.45574977  0.83809929  0.16751621    -0.24300
H1944       H  0.45839498  0.76096968  0.16239044     0.14700
H1945       H  0.53310513  0.80884130  0.27236278     0.14700
C1946       C  0.54859090  0.73539046  0.26026021    -0.24200
H1947       H  0.44110691  0.82282290  0.14382112     0.04900
H1948       H  0.47875204  0.85788550  0.15475675     0.08200
H1949       H  0.43402035  0.85578480  0.18232265     0.08200
H1950       H  0.55338965  0.70613806  0.24880842     0.08100
H1951       H  0.53993633  0.73247575  0.29112315     0.08100
H1952       H  0.57720205  0.75102061  0.25791527     0.04900
C1953       C  0.58385343  0.08441864  0.07944094    -0.20900
C1954       C  0.59593885  0.08656800  0.11773759    -0.07500
C1955       C  0.63395337  0.10192013  0.12448056     0.13400
C1956       C  0.65703122  0.11667631  0.09340696    -0.20900
C1957       C  0.64400169  0.11634095  0.05550929    -0.07500
C1958       C  0.60730420  0.09868966  0.04838922     0.13400
C1959       C  0.59148645  0.09617843  0.00856555    -0.24300
H1960       H  0.55536297  0.07207874  0.07361102     0.14700
H1961       H  0.68534147  0.12971888  0.09882680     0.14700
C1962       C  0.65110659  0.10295052  0.16399471    -0.24200
H1963       H  0.56179011  0.08276403  0.00865548     0.04900
H1964       H  0.61033951  0.07794006  0.99042270     0.08200
H1965       H  0.58958968  0.12577301  0.99587338     0.08200
H1966       H  0.65085470  0.07315141  0.17703159     0.08100
H1967       H  0.63439691  0.12284790  0.18252347     0.08100
H1968       H  0.68179614  0.11381061  0.16308235     0.04900
C1969       C  0.60530938  0.88673233  0.13067848    -0.20900
C1970       C  0.57748557  0.91403713  0.11934201    -0.07500
C1971       C  0.57045216  0.91920164  0.07944471     0.13400
C1972       C  0.59314738  0.89910142  0.05277329    -0.20900
C1973       C  0.62279661  0.87451049  0.06426130    -0.07500
C1974       C  0.62749889  0.86645354  0.10384072     0.13400
C1975       C  0.65538980  0.83643950  0.11840691    -0.24300
H1976       H  0.60998262  0.88098471  0.16092020     0.14700
H1977       H  0.58725773  0.90212503  0.02262631     0.14700
C1978       C  0.53964860  0.94568492  0.06401180    -0.24200
H1979       H  0.65805106  0.83709772  0.15012625     0.04900
H1980       H  0.68469710  0.84146762  0.10546270     0.08200
H1981       H  0.64479750  0.80681573  0.11123770     0.08200
H1982       H  0.54622043  0.97630536  0.07173181     0.08100
H1983       H  0.51053620  0.93626298  0.07565652     0.08100
H1984       H  0.53830723  0.94502842  0.03217135     0.04900
C1985       C  0.39577875  0.93353167  0.09009742    -0.20900
C1986       C  0.38936625  0.92068470  0.12849847    -0.07500
C1987       C  0.35926894  0.89221761  0.13629312     0.13400
C1988       C  0.33845124  0.87682673  0.10562040    -0.20900
C1989       C  0.34585689  0.88897103  0.06740378    -0.07500
C1990       C  0.37431580  0.91863403  0.05969575     0.13400
C1991       C  0.38378127  0.93416070  0.01974260    -0.24300
H1992       H  0.41799505  0.95564333  0.08343647     0.14700
H1993       H  0.31601370  0.85467969  0.11148236     0.14700
C1994       C  0.34793493  0.87740204  0.17623091    -0.24200
H1995       H  0.40812569  0.95598174  0.01933741     0.04900
H1996       H  0.35845951  0.94892962  0.00745615     0.08200
H1997       H  0.39298159  0.91014560  0.00145047     0.08200
H1998       H  0.33883746  0.90170521  0.19432499     0.08100
H1999       H  0.37217272  0.86226476  0.18989382     0.08100
H2000       H  0.32306316  0.85621625  0.17600817     0.04900
C2001       C  0.38698102  0.13255992  0.06956219    -0.20900
C2002       C  0.34646142  0.13141174  0.07516035    -0.07500
C2003       C  0.33043506  0.11687433  0.11029050     0.13400
C2004       C  0.35494411  0.09918651  0.13696297    -0.20900
C2005       C  0.39533693  0.09732726  0.12995230    -0.07500
C2006       C  0.41174612  0.11567311  0.09634130     0.13400
C2007       C  0.45498737  0.11956365  0.08814587    -0.24300
H2008       H  0.39943006  0.14672565  0.04384101     0.14700
H2009       H  0.34246378  0.08662328  0.16340072     0.14700
C2010       C  0.28802391  0.12173257  0.12043077    -0.24200
H2011       H  0.46299770  0.15079515  0.08303809     0.04900
H2012       H  0.46262667  0.10319339  0.06196124     0.08200
H2013       H  0.47301811  0.10914759  0.11204014     0.08200
H2014       H  0.26945612  0.10792811  0.09885928     0.08100
H2015       H  0.28150143  0.15325847  0.12115775     0.08100
H2016       H  0.28023307  0.10850374  0.14903460     0.04900
C2017       C  0.74824118  0.24556697  0.47266916    -0.20900
C2018       C  0.73183953  0.21307460  0.49313582    -0.07500
C2019       C  0.75745523  0.18795492  0.51274306     0.13400
C2020       C  0.79610480  0.20036839  0.51795822    -0.20900
C2021       C  0.81077495  0.23508876  0.50076188    -0.07500
C2022       C  0.78675715  0.25760449  0.47720947     0.13400
C2023       C  0.80118516  0.29487782  0.45740791    -0.24300
H2024       H  0.73071169  0.26229500  0.45312567     0.14700
H2025       H  0.81566612  0.18150230  0.53334493     0.14700
C2026       C  0.74688082  0.14654996  0.52472677    -0.24200
H2027       H  0.77739441  0.31041596  0.44286505     0.04900
H2028       H  0.82344245  0.28832368  0.43511811     0.08200
H2029       H  0.81383011  0.31482922  0.47875880     0.08200
H2030       H  0.71888998  0.13638238  0.51290097     0.08100
H2031       H  0.74598522  0.14361809  0.55655138     0.08100
H2032       H  0.76925928  0.12670178  0.51327491     0.04900
C2033       C  0.60229028  0.13802192  0.36297342    -0.20900
C2034       C  0.58081864  0.10474904  0.37615706    -0.07500
C2035       C  0.57649386  0.09786225  0.41657328     0.13400
C2036       C  0.59306984  0.12450221  0.44179266    -0.20900
C2037       C  0.61467816  0.15709081  0.42827362    -0.07500
C2038       C  0.61948231  0.16399819  0.38834594     0.13400
C2039       C  0.64192391  0.19865695  0.37125344    -0.24300
H2040       H  0.60577853  0.14422228  0.33242759     0.14700
H2041       H  0.58990003  0.11938094  0.47250871     0.14700
C2042       C  0.55524188  0.06261769  0.43409274    -0.24200
H2043       H  0.62254441  0.21589296  0.35261814     0.04900
H2044       H  0.66673091  0.18837331  0.35349234     0.08200
H2045       H  0.65360186  0.21848610  0.39307147     0.08200
H2046       H  0.56865085  0.03553938  0.42364138     0.08100
H2047       H  0.52397008  0.06317948  0.42682330     0.08100
H2048       H  0.55666993  0.06178037  0.46595416     0.04900
C2049       C  0.61599722  0.30862215  0.51412007    -0.20900
C2050       C  0.60512153  0.28080696  0.48726177    -0.07500
C2051       C  0.58128532  0.29218926  0.45649492     0.13400
C2052       C  0.56939853  0.33129717  0.45338210    -0.20900
C2053       C  0.58203373  0.35922175  0.47957371    -0.07500
C2054       C  0.60668370  0.34763355  0.50951908     0.13400
C2055       C  0.62458021  0.37604550  0.53674532    -0.24300
H2056       H  0.63455639  0.30029362  0.53761886     0.14700
H2057       H  0.54950558  0.33984079  0.43114334     0.14700
C2058       C  0.56882988  0.26360192  0.42681398    -0.24200
H2059       H  0.61277908  0.37035853  0.56631916     0.04900
H2060       H  0.61911252  0.40662823  0.52815309     0.08200
H2061       H  0.65666398  0.37267359  0.53665280     0.08200
H2062       H  0.55134908  0.23946555  0.44067868     0.08100
H2063       H  0.59484015  0.25170970  0.41232227     0.08100
H2064       H  0.55072762  0.27752321  0.40455074     0.04900
C2065       C  0.24254149  0.02566558  0.73927348    -0.20900
C2066       C  0.23214624  0.00571996  0.70560307    -0.07500
C2067       C  0.26276895  0.99034760  0.68286485     0.13400
C2068       C  0.30041286  0.98918146  0.69764248    -0.20900
C2069       C  0.30939003  0.00608520  0.73276803    -0.07500
C2070       C  0.28024875  0.02519317  0.75358946     0.13400
C2071       C  0.28753114  0.04461987  0.79133469    -0.24300
H2072       H  0.22115204  0.04209710  0.75500240     0.14700
H2073       H  0.32370072  0.97726061  0.68027831     0.14700
C2074       C  0.25832753  0.97853063  0.64174199    -0.24200
H2075       H  0.28173402  0.07624042  0.78846869     0.04900
H2076       H  0.31765808  0.04117449  0.80139212     0.08200
H2077       H  0.26761692  0.03156572  0.81387227     0.08200
H2078       H  0.23157671  0.98987698  0.62890455     0.08100
H2079       H  0.25898357  0.94629872  0.63985243     0.08100
H2080       H  0.28274922  0.99126693  0.62383132     0.04900
C2081       C  0.73493792  0.98742660  0.74186980    -0.20900
C2082       C  0.75187642  0.00712383  0.70936802    -0.07500
C2083       C  0.72645936  0.02717675  0.68440288     0.13400
C2084       C  0.68747615  0.03222543  0.69608768    -0.20900
C2085       C  0.67235180  0.01520138  0.73038265    -0.07500
C2086       C  0.69646603  0.99256273  0.75362234     0.13400
C2087       C  0.68306251  0.97401084  0.79154908    -0.24300
H2088       H  0.75173421  0.96771780  0.75901029     0.14700
H2089       H  0.66802323  0.04736292  0.67700323     0.14700
C2090       C  0.73757449  0.04015259  0.64397479    -0.24200
H2091       H  0.68406797  0.94178311  0.78975179     0.04900
H2092       H  0.65327596  0.98219334  0.80056013     0.08200
H2093       H  0.70278128  0.98363482  0.81452743     0.08200
H2094       H  0.71490454  0.03010962  0.62395085     0.08100
H2095       H  0.76490528  0.02720180  0.63367970     0.08100
H2096       H  0.73982954  0.07245490  0.64206814     0.04900
C2097       C  0.37932733  0.13560033  0.63111746    -0.20900
C2098       C  0.40145965  0.10333428  0.62013921    -0.07500
C2099       C  0.40458851  0.09479564  0.58032651     0.13400
C2100       C  0.38564570  0.11839085  0.55348675    -0.20900
C2101       C  0.36384496  0.15033222  0.56474212    -0.07500
C2102       C  0.36096396  0.15939041  0.60403535     0.13400
C2103       C  0.34065478  0.19529762  0.61754497    -0.24300
H2104       H  0.37698330  0.14306348  0.66114137     0.14700
H2105       H  0.38807906  0.11202517  0.52316467     0.14700
C2106       C  0.42776224  0.06133405  0.56511386    -0.24200
H2107       H  0.34325099  0.19899189  0.64900918     0.04900
H2108       H  0.30920841  0.19345624  0.61138684     0.08200
H2109       H  0.35395071  0.22149451  0.60295538     0.08200
H2110       H  0.42605506  0.05923498  0.53339637     0.08100
H2111       H  0.41625396  0.03333458  0.57778036     0.08100
H2112       H  0.45898990  0.06549809  0.57183152     0.04900
C2113       C  0.56576812  0.15114116  0.61340940    -0.20900
C2114       C  0.56997043  0.11045647  0.61273047    -0.07500
C2115       C  0.59108421  0.09400080  0.58193442     0.13400
C2116       C  0.60920563  0.11872340  0.55394715    -0.20900
C2117       C  0.60548999  0.15930399  0.55501599    -0.07500
C2118       C  0.58286293  0.17570548  0.58452958     0.13400
C2119       C  0.57761521  0.21909609  0.58593383    -0.24300
H2120       H  0.54903957  0.16371318  0.63663170     0.14700
H2121       H  0.62686427  0.10637124  0.53127200     0.14700
C2122       C  0.59580686  0.05055542  0.57911240    -0.24200
H2123       H  0.55909645  0.22723784  0.61092241     0.04900
H2124       H  0.56347882  0.22946861  0.55933803     0.08200
H2125       H  0.60639285  0.23408556  0.58820880     0.08200
H2126       H  0.56700408  0.03606693  0.57540368     0.08100
H2127       H  0.60931834  0.03888771  0.60553481     0.08100
H2128       H  0.61459377  0.04298422  0.55411397     0.04900
C2129       C  0.58374159  0.92691100  0.58753995    -0.20900
C2130       C  0.57595069  0.91058111  0.62431486    -0.07500
C2131       C  0.58604768  0.87115923  0.63159540     0.13400
C2132       C  0.60394099  0.84977673  0.60220936    -0.20900
C2133       C  0.61198745  0.86642747  0.56572141    -0.07500
C2134       C  0.60175062  0.90552260  0.55840413     0.13400
C2135       C  0.61145810  0.92556433  0.52055213    -0.24300
H2136       H  0.57646438  0.95701225  0.58172757     0.14700
H2137       H  0.61166042  0.81972871  0.60766898     0.14700
C2138       C  0.57721321  0.85082296  0.66972403    -0.24200
H2139       H  0.60203830  0.95633325  0.51985628     0.04900
H2140       H  0.59678808  0.91028612  0.49699330     0.08200
H2141       H  0.64340583  0.92566196  0.51600485     0.08200
H2142       H  0.54571719  0.85277070  0.67708469     0.08100
H2143       H  0.59475021  0.86421990  0.69254691     0.08100
H2144       H  0.58445075  0.81944823  0.66913105     0.04900
C2145       C  0.41922722  0.90898902  0.59155764    -0.20900
C2146       C  0.40389683  0.90731791  0.62936740    -0.07500
C2147       C  0.37099541  0.88261215  0.63771150     0.13400
C2148       C  0.35511523  0.86043810  0.60830176    -0.20900
C2149       C  0.36961201  0.86331318  0.57030701    -0.07500
C2150       C  0.40215737  0.88824124  0.56183509     0.13400
C2151       C  0.41749604  0.89616188  0.52152129    -0.24300
H2152       H  0.44437010  0.92763962  0.58473806     0.14700
H2153       H  0.33021483  0.84133231  0.61483483     0.14700
C2154       C  0.35104392  0.88022044  0.67675112    -0.24200
H2155       H  0.44079972  0.91910816  0.52044734     0.04900
H2156       H  0.39358815  0.90687718  0.50371085     0.08200
H2157       H  0.43041098  0.86986262  0.50920079     0.08200
H2158       H  0.34190119  0.90962220  0.68540414     0.08100
H2159       H  0.37085462  0.86781627  0.69829450     0.08100
H2160       H  0.32449516  0.86118116  0.67687806     0.04900
C2161       C  0.50420999  0.20675154  0.79856774    -0.20900
C2162       C  0.49071340  0.19522387  0.76286766    -0.07500
C2163       C  0.47695002  0.22344991  0.73707653     0.13400
C2164       C  0.47782003  0.26291628  0.74727508    -0.20900
C2165       C  0.49212297  0.27550410  0.78305343    -0.07500
C2166       C  0.50424106  0.24597813  0.80958263     0.13400
C2167       C  0.51625278  0.25435766  0.85021227    -0.24300
H2168       H  0.51397310  0.18447242  0.81849326     0.14700
H2169       H  0.46555007  0.28312818  0.72713803     0.14700
C2170       C  0.46157863  0.21189084  0.69859555    -0.24200
H2171       H  0.52127923  0.22709407  0.86697325     0.04900
H2172       H  0.49324600  0.26997561  0.86596516     0.08200
H2173       H  0.54396012  0.27121036  0.85043288     0.08200
H2174       H  0.43596971  0.19186772  0.70273985     0.08100
H2175       H  0.48459183  0.19694414  0.68196317     0.08100
H2176       H  0.45237151  0.23754622  0.68135113     0.04900
C2177       C  0.50772583  0.81748695  0.81001575    -0.20900
C2178       C  0.49099949  0.82928995  0.77543815    -0.07500
C2179       C  0.47198315  0.80149669  0.75293619     0.13400
C2180       C  0.47335441  0.76203662  0.76381829    -0.20900
C2181       C  0.49349591  0.74934049  0.79664803    -0.07500
C2182       C  0.50676939  0.77823483  0.82220274     0.13400
C2183       C  0.51642613  0.76982076  0.86355739    -0.24300
H2184       H  0.51949267  0.83941703  0.82880007     0.14700
H2185       H  0.45847914  0.74102928  0.74628146     0.14700
C2186       C  0.45093433  0.81321416  0.71707118    -0.24200
H2187       H  0.54799225  0.77505112  0.86793125     0.04900
H2188       H  0.50783689  0.73988349  0.87327730     0.08200
H2189       H  0.49982841  0.78959032  0.88238531     0.08200
H2190       H  0.47123407  0.82925449  0.69682470     0.08100
H2191       H  0.42627354  0.83212554  0.72463105     0.08100
H2192       H  0.43889786  0.78752782  0.70209505     0.04900
C2193       C  0.34499034  0.14090102  0.90508773    -0.20900
C2194       C  0.35081476  0.12741355  0.94300595    -0.07500
C2195       C  0.37530166  0.09484897  0.94833506     0.13400
C2196       C  0.39380330  0.07851097  0.91646408    -0.20900
C2197       C  0.39022351  0.09381345  0.87902412    -0.07500
C2198       C  0.36421379  0.12486527  0.87320316     0.13400
C2199       C  0.35634314  0.14177798  0.83386711    -0.24300
H2200       H  0.32490417  0.16429771  0.90015616     0.14700
H2201       H  0.41235196  0.05379931  0.92141545     0.14700
C2202       C  0.38491129  0.07656937  0.98650256    -0.24200
H2203       H  0.33547952  0.16602550  0.83512679     0.04900
H2204       H  0.34335736  0.11899239  0.81563499     0.08200
H2205       H  0.38379117  0.15358677  0.82033703     0.08200
H2206       H  0.37223210  0.04653972  0.98871433     0.08100
H2207       H  0.37462287  0.09310858  0.01081927     0.08100
H2208       H  0.41699430  0.07509486  0.98923869     0.04900
C2209       C  0.40566335  0.90072848  0.90592653    -0.20900
C2210       C  0.39004259  0.93064161  0.88377537    -0.07500
C2211       C  0.35066882  0.94068367  0.88927644     0.13400
C2212       C  0.32784126  0.92065254  0.91768452    -0.20900
C2213       C  0.34307267  0.88950197  0.93888527    -0.07500
C2214       C  0.38251503  0.87910856  0.93254226     0.13400
C2215       C  0.40091966  0.84539619  0.95355626    -0.24300
H2216       H  0.43579112  0.89304868  0.90100230     0.14700
H2217       H  0.29775934  0.92846514  0.92254257     0.14700
C2218       C  0.33289968  0.97238235  0.86516109    -0.24200
H2219       H  0.43300210  0.84553658  0.94894308     0.04900
H2220       H  0.39509798  0.84658227  0.98494397     0.08200
H2221       H  0.38954200  0.81734558  0.94275389     0.08200
H2222       H  0.33416391  0.96457441  0.83437950     0.08100
H2223       H  0.34912713  0.00032260  0.86887305     0.08100
H2224       H  0.30190853  0.97675512  0.87336236     0.04900
C2225       C  0.61988652  0.90231933  0.86786930    -0.20900
C2226       C  0.59288526  0.93052606  0.87923421    -0.07500
C2227       C  0.59228798  0.94135207  0.91845350     0.13400
C2228       C  0.61629931  0.92210438  0.94472418    -0.20900
C2229       C  0.64083273  0.89177179  0.93390991    -0.07500
C2230       C  0.64456202  0.88398699  0.89415199     0.13400
C2231       C  0.67604103  0.85888623  0.87771532    -0.24300
H2232       H  0.62263521  0.89487290  0.83785231     0.14700
H2233       H  0.61541308  0.93104177  0.97411357     0.14700
C2234       C  0.56687949  0.97323784  0.93352154    -0.24200
H2235       H  0.69141424  0.87488054  0.85360646     0.04900
H2236       H  0.66294950  0.83160673  0.86665433     0.08200
H2237       H  0.69866751  0.85187656  0.89876037     0.08200
H2238       H  0.53570847  0.96500837  0.93051672     0.08100
H2239       H  0.57376744  0.00105212  0.91769899     0.08100
H2240       H  0.57147223  0.97844798  0.96449442     0.04900
C2241       C  0.57441064  0.13526715  0.89002021    -0.20900
C2242       C  0.58903923  0.10347770  0.87018089    -0.07500
C2243       C  0.62685607  0.09053979  0.87732386     0.13400
C2244       C  0.64901885  0.10917869  0.90505869    -0.20900
C2245       C  0.63447494  0.14072481  0.92565327    -0.07500
C2246       C  0.59683960  0.15460027  0.91735681     0.13400
C2247       C  0.57948633  0.18900368  0.93730485    -0.24300
H2248       H  0.54539002  0.14512696  0.88383770     0.14700
H2249       H  0.67791920  0.09880266  0.91088016     0.14700
C2250       C  0.64346703  0.05647931  0.85626158    -0.24200
H2251       H  0.54815827  0.19195174  0.93087110     0.04900
H2252       H  0.59445159  0.21631288  0.92708772     0.08200
H2253       H  0.58185904  0.18600592  0.96891679     0.08200
H2254       H  0.64497875  0.06316976  0.82491808     0.08100
H2255       H  0.62469821  0.03010799  0.86165471     0.08100
H2256       H  0.67329962  0.04978269  0.86571713     0.04900
loop_ 
_geom_bond_atom_site_label_1 
_geom_bond_atom_site_label_2 
_geom_bond_distance 
_geom_bond_site_symmetry_2 
_ccdc_geom_bond_type 
O1           C12   1.290       .  A
O1          Eu37   2.456       .  S
O2           C13   1.290       .  A
O2          Eu36   2.453       .  S
O3           C14   1.290       .  A
O3           Eu9   2.455       .  S
O4           C15   1.291       .  A
O4           Eu9   2.459       .  S
O5           C15   1.294       .  A
O5          Eu39   2.477       .  S
O6           C14   1.289   1_565  A
O6          Eu38   2.441       .  S
O7           C13   1.294       .  A
O7           Eu9   2.479       .  S
O8           C12   1.290       .  A
O8           Eu9   2.457       .  S
Eu9          O19   2.361       .  S
Eu9          O11   2.358       .  S
Eu9          O10   2.343       .  S
Eu9          O17   2.360       .  S
O10         Eu39   2.350       .  S
O10         Eu36   2.359       .  S
O11         Eu37   2.351       .  S
O11         Eu38   2.347   1_545  S
C12        C2242   1.467       .  S
C13        C2114   1.485       .  S
C14        C2085   1.465       .  S
C15        C2162   1.478       .  S
H16          O17   0.965       .  S
O17         Eu38   2.364   1_545  S
O17         Eu36   2.339       .  S
H18          O19   0.965       .  S
O19         Eu37   2.350       .  S
O19         Eu39   2.354       .  S
O20          C43   1.292       .  A
O20         Eu36   2.453   1_565  S
O21          C44   1.292       .  A
O21         Eu37   2.463   1_565  S
O22          C45   1.290       .  A
O22         Eu38   2.458       .  S
O23          C46   1.292       .  A
O23         Eu39   2.454       .  S
O24          C47   1.290       .  A
O24         Eu39   2.459       .  S
O25          C48   1.292       .  A
O25         Eu38   2.462       .  S
O26          C49   1.290       .  A
O26         Eu40   2.455       .  S
O27          C50   1.289   1_565  A
O27         Eu40   2.450       .  S
O28          C49   1.291       .  A
O28         Eu38   2.458       .  S
O29          C50   1.292       .  A
O29         Eu39   2.460       .  S
O30          C45   1.295       .  A
O30         Eu36   2.474   1_565  S
O31          C48   1.294       .  A
O31         Eu37   2.481   1_565  S
O32          C47   1.293       .  A
O32         Eu37   2.456       .  S
O33          C46   1.289       .  A
O33         Eu36   2.456       .  S
O34          C43   1.288       .  A
O34         Eu40   2.448       .  S
O35          C44   1.288       .  A
O35         Eu40   2.446       .  S
Eu36         O54   2.337       .  S
Eu36         O42   2.351   1_545  S
Eu37         O41   2.351       .  S
Eu37         O52   2.341   1_545  S
Eu38         O52   2.357       .  S
Eu38         O42   2.346       .  S
Eu39         O41   2.347       .  S
Eu39         O54   2.360       .  S
Eu40         O41   2.344   1_565  S
Eu40         O52   2.359       .  S
Eu40         O54   2.352   1_565  S
Eu40         O42   2.345       .  S
C43        C2146   1.491       .  S
C44        C2210   1.468       .  S
C45        C2130   1.495       .  S
C46        C2098   1.498       .  S
C47        C2197   1.498       .  S
C48        C2226   1.509       .  S
C49        C2178   1.470       .  S
C50        C2069   1.468       .  S
H51          O52   0.965       .  S
H53          O54   0.965       .  S
C55          C56   1.541       .  S
C55          C61   1.532       .  S
C55          C59   1.528       .  S
C55        C2018   1.530       .  S
C56          H63   1.084       .  S
C56          C57   1.366       .  D
C57          C58   1.544       .  S
C57        C2117   1.483       .  S
C58          C62   1.543       .  S
C58          C60   1.542       .  S
C58          H64   1.110       .  S
C59          H65   1.087       .  S
C59          C60   1.365       .  D
C60        C2037   1.474       .  S
C61          H66   1.086       .  S
C61          C62   1.358       .  D
C62        C2050   1.487       .  S
O67          C78   1.287       .  A
O67        Eu103   2.444       .  S
O68          C79   1.295       .  A
O68        Eu102   2.475       .  S
O69          C80   1.289       .  A
O69         Eu75   2.452       .  S
O70          C81   1.292       .  A
O70         Eu75   2.465       .  S
O71          C81   1.287       .  A
O71        Eu105   2.438       .  S
O72          C80   1.291   1_565  A
O72        Eu104   2.458       .  S
O73          C79   1.291       .  A
O73         Eu75   2.465       .  S
O74          C78   1.294       .  A
O74         Eu75   2.464       .  S
Eu75         O85   2.352       .  S
Eu75         O77   2.353       .  S
Eu75         O76   2.350       .  S
Eu75         O83   2.351       .  S
O76        Eu105   2.352       .  S
O76        Eu102   2.346       .  S
O77        Eu103   2.351       .  S
O77        Eu104   2.350   1_545  S
C78        C2034   1.494       .  S
C79        C1954   1.502       .  S
C80        C1858   1.469       .  S
C81        C1925   1.479       .  S
H82          O83   0.965       .  S
O83        Eu104   2.342   1_545  S
O83        Eu102   2.362       .  S
H84          O85   0.964       .  S
O85        Eu103   2.358       .  S
O85        Eu105   2.336       .  S
O86         C109   1.294       .  A
O86        Eu102   2.467   1_565  S
O87         C110   1.290       .  A
O87        Eu103   2.455   1_565  S
O88         C111   1.291       .  A
O88        Eu104   2.449       .  S
O89         C112   1.291       .  A
O89        Eu105   2.454       .  S
O90         C113   1.291       .  A
O90        Eu105   2.461       .  S
O91         C114   1.290       .  A
O91        Eu104   2.455       .  S
O92         C115   1.292       .  A
O92        Eu106   2.468       .  S
O93         C116   1.291   1_565  A
O93        Eu106   2.459       .  S
O94         C115   1.289       .  A
O94        Eu104   2.451       .  S
O95         C116   1.286       .  A
O95        Eu105   2.437       .  S
O96         C111   1.287       .  A
O96        Eu102   2.445   1_565  S
O97         C114   1.291       .  A
O97        Eu103   2.460   1_565  S
O98         C113   1.294       .  A
O98        Eu103   2.481       .  S
O99         C112   1.291       .  A
O99        Eu102   2.458       .  S
O100        C109   1.289       .  A
O100       Eu106   2.458       .  S
O101        C110   1.289       .  A
O101       Eu106   2.445       .  S
Eu102       O120   2.359       .  S
Eu102       O108   2.342   1_545  S
Eu103       O107   2.341       .  S
Eu103       O118   2.368   1_545  S
Eu104       O118   2.350       .  S
Eu104       O108   2.345       .  S
Eu105       O107   2.346       .  S
Eu105       O120   2.349       .  S
Eu106       O107   2.354   1_565  S
Eu106       O118   2.356       .  S
Eu106       O120   2.353   1_565  S
Eu106       O108   2.340       .  S
C109       C1986   1.501       .  S
C110       C1877   1.462       .  S
C111       C1970   1.492       .  S
C112       C2005   1.479       .  S
C113       C1906   1.480       .  S
C114       C1890   1.468       .  S
C115       C1941   1.480       .  S
C116       C1845   1.463       .  S
H117        O118   0.966       .  S
H119        O120   0.966       .  S
C121        C122   1.542   1_554  S
C121        C127   1.516       .  S
C121        C125   1.537       .  S
C121       C1813   1.532       .  S
C122        H129   1.079       .  S
C122        C123   1.362       .  D
C123        C124   1.544   1_556  S
C123       C2213   1.484       .  S
C124        C128   1.549       .  S
C124        C126   1.544       .  S
C124        H130   1.105       .  S
C125        H131   1.086       .  S
C125        C126   1.372       .  D
C126       C1989   1.492       .  S
C127        H132   1.087       .  S
C127        C128   1.357       .  D
C128       C1829   1.484       .  S
C133        C134   1.540   1_556  S
C133        C139   1.531   1_556  S
C133        C137   1.545       .  S
C133       C1781   1.540       .  S
C134        H141   1.083       .  S
C134        C135   1.359       .  D
C135        C136   1.546       .  S
C135       C1973   1.482       .  S
C136        C140   1.534       .  S
C136        C138   1.553   1_554  S
C136        H142   1.109       .  S
C137        H143   1.082       .  S
C137        C138   1.378       .  D
C138       C2229   1.512       .  S
C139        H144   1.087       .  S
C139        C140   1.356       .  D
C140       C1794   1.480       .  S
C145        C146   1.545       .  S
C145        C151   1.541       .  S
C145        C149   1.542       .  S
C145       C1746   1.544       .  S
C146        H153   1.083       .  S
C146        C147   1.366       .  D
C147        C148   1.540       .  S
C147       C1893   1.488       .  S
C148        C152   1.537       .  S
C148        C150   1.541       .  S
C148        H154   1.111       .  S
C149        H155   1.086       .  S
C149        C150   1.368       .  D
C150       C2133   1.492       .  S
C151        H156   1.083       .  S
C151        C152   1.362       .  D
C152       C1762   1.480       .  S
C157        C158   1.524       .  S
C157        C163   1.527       .  S
C157        C161   1.558   1_554  S
C157       C1714   1.544       .  S
C158        H165   1.087       .  S
C158        C159   1.360       .  D
C159        C160   1.555       .  S
C159       C2002   1.479       .  S
C160        C164   1.542       .  S
C160        C162   1.537   1_554  S
C160        H166   1.095       .  S
C161        H167   1.080       .  S
C161        C162   1.377       .  D
C162       C2194   1.507       .  S
C163        H168   1.086       .  S
C163        C164   1.368       .  D
C164       C1730   1.508   1_554  S
C169        C170   1.544       .  S
C169        C175   1.530       .  S
C169        C173   1.529   1_556  S
C169       C1685   1.531   1_556  S
C170        H177   1.083       .  S
C170        C171   1.370       .  D
C171        C172   1.544       .  S
C171       C2245   1.489       .  S
C172        C176   1.548       .  S
C172        C174   1.547   1_556  S
C172        H178   1.105       .  S
C173        H179   1.087       .  S
C173        C174   1.365       .  D
C174       C1957   1.498       .  S
C175        H180   1.083       .  S
C175        C176   1.360       .  D
C176       C1701   1.494       .  S
C181        C182   1.537       .  S
C181        C187   1.540       .  S
C181        C185   1.546       .  S
C181       C1650   1.547       .  S
C182        H189   1.085       .  S
C182        C183   1.369       .  D
C183        C184   1.547       .  S
C183       C1909   1.500       .  S
C184        C188   1.541       .  S
C184        C186   1.535       .  S
C184        H190   1.110       .  S
C185        H191   1.084       .  S
C185        C186   1.368       .  D
C186       C2101   1.482       .  S
C187        H192   1.084       .  S
C187        C188   1.363       .  D
C188       C1666   1.490       .  S
C193        C194   1.532       .  S
C193        C199   1.523       .  S
C193        C197   1.537       .  S
C193       C1618   1.522       .  S
C194        H201   1.086       .  S
C194        C195   1.369       .  D
C195        C196   1.542       .  S
C195       C2149   1.490       .  S
C196        C200   1.541       .  S
C196        C198   1.546       .  S
C196        H202   1.104       .  S
C197        H203   1.081       .  S
C197        C198   1.363       .  D
C198       C1874   1.477       .  S
C199        H204   1.088       .  S
C199        C200   1.353       .  D
C200       C1634   1.476       .  S
O205        C216   1.288       .  A
O205       Eu241   2.446       .  S
O206        C217   1.289   1_455  A
O206       Eu240   2.451       .  S
O207        C218   1.293       .  A
O207       Eu213   2.461       .  S
O208        C219   1.290       .  A
O208       Eu213   2.445       .  S
O209        C219   1.291       .  A
O209       Eu243   2.459       .  S
O210        C218   1.289       .  A
O210       Eu242   2.456       .  S
O211        C217   1.295       .  A
O211       Eu213   2.477       .  S
O212        C216   1.293       .  A
O212       Eu213   2.472       .  S
Eu213       O223   2.355       .  S
Eu213       O215   2.346       .  S
Eu213       O214   2.347       .  S
Eu213       O221   2.349       .  S
O214       Eu243   2.355       .  S
O214       Eu240   2.345   1_655  S
O215       Eu241   2.354       .  S
O215       Eu242   2.354       .  S
C216       C1749   1.473       .  S
C217       C1458   1.496       .  S
C218       C1570   1.498       .  S
C219       C1538   1.469       .  S
H220        O221   0.966       .  S
O221       Eu242   2.369       .  S
O221       Eu240   2.350   1_655  S
H222        O223   0.965       .  S
O223       Eu241   2.345       .  S
O223       Eu243   2.367       .  S
O224        C247   1.289       .  A
O224       Eu240   2.450       .  S
O225        C248   1.291       .  A
O225       Eu241   2.459       .  S
O226        C249   1.298       .  A
O226       Eu242   2.507   1_455  S
O227        C250   1.290       .  A
O227       Eu243   2.450   1_455  S
O228        C251   1.296       .  A
O228       Eu243   2.491       .  S
O229        C252   1.295       .  A
O229       Eu242   2.479       .  S
O230        C253   1.292       .  A
O230       Eu244   2.468       .  S
O231        C254   1.293       .  A
O231       Eu244   2.477       .  S
O232        C253   1.294       .  A
O232       Eu242   2.479   1_455  S
O233        C254   1.297       .  A
O233       Eu243   2.485   1_455  S
O234        C249   1.292       .  A
O234       Eu240   2.457       .  S
O235        C252   1.289       .  A
O235       Eu241   2.446       .  S
O236        C251   1.293       .  A
O236       Eu241   2.465       .  S
O237        C250   1.290       .  A
O237       Eu240   2.451       .  S
O238        C247   1.283       .  A
O238       Eu244   2.404       .  S
O239        C248   1.285   1_455  A
O239       Eu244   2.424       .  S
Eu240       O258   2.352       .  S
Eu240       O246   2.343       .  S
Eu241       O245   2.344       .  S
Eu241       O256   2.356       .  S
Eu242       O256   2.375       .  S
Eu242       O246   2.342   1_655  S
Eu243       O245   2.344       .  S
Eu243       O258   2.366   1_655  S
Eu244       O245   2.350   1_455  S
Eu244       O256   2.340   1_455  S
Eu244       O258   2.341       .  S
Eu244       O246   2.351       .  S
C247       C1621   1.469       .  S
C248       C1474   1.470       .  S
C249       C1554   1.516       .  S
C250       C1490   1.464       .  S
C251       C1522   1.510       .  S
C252       C1589   1.471       .  S
C253       C1602   1.481       .  S
C254       C1506   1.510       .  S
H255        O256   0.966       .  S
H257        O258   0.965       .  S
O259        C270   1.291       .  A
O259       Eu295   2.459       .  S
O260        C271   1.291   1_455  A
O260       Eu294   2.459       .  S
O261        C272   1.298       .  A
O261       Eu267   2.493       .  S
O262        C273   1.295       .  A
O262       Eu267   2.482       .  S
O263        C273   1.294       .  A
O263       Eu297   2.478       .  S
O264        C272   1.293       .  A
O264       Eu296   2.475       .  S
O265        C271   1.288       .  A
O265       Eu267   2.442       .  S
O266        C270   1.286       .  A
O266       Eu267   2.425       .  S
Eu267       O277   2.370       .  S
Eu267       O269   2.342       .  S
Eu267       O268   2.343       .  S
Eu267       O275   2.362       .  S
O268       Eu297   2.353       .  S
O268       Eu294   2.348   1_655  S
O269       Eu295   2.360       .  S
O269       Eu296   2.358       .  S
C270       C2021   1.463       .  S
C271       C1298   1.469       .  S
C272       C1333   1.517       .  S
C273       C1426   1.490       .  S
H274        O275   0.966       .  S
O275       Eu296   2.345       .  S
O275       Eu294   2.362   1_655  S
H276        O277   0.966       .  S
O277       Eu295   2.366       .  S
O277       Eu297   2.346       .  S
O278        C301   1.291       .  A
O278       Eu294   2.463       .  S
O279        C302   1.291       .  A
O279       Eu295   2.463       .  S
O280        C303   1.296       .  A
O280       Eu296   2.484   1_455  S
O281        C304   1.293       .  A
O281       Eu297   2.470   1_455  S
O282        C305   1.293       .  A
O282       Eu297   2.469       .  S
O283        C306   1.291       .  A
O283       Eu296   2.460       .  S
O284        C307   1.289       .  A
O284       Eu298   2.445       .  S
O285        C308   1.289       .  A
O285       Eu298   2.438       .  S
O286        C307   1.291       .  A
O286       Eu296   2.463   1_455  S
O287        C308   1.291       .  A
O287       Eu297   2.458   1_455  S
O288        C303   1.287       .  A
O288       Eu294   2.445       .  S
O289        C306   1.294       .  A
O289       Eu295   2.464       .  S
O290        C305   1.295       .  A
O290       Eu295   2.486       .  S
O291        C304   1.288       .  A
O291       Eu294   2.447       .  S
O292        C301   1.293       .  A
O292       Eu298   2.476       .  S
O293        C302   1.296   1_455  A
O293       Eu298   2.488       .  S
Eu294       O312   2.350       .  S
Eu294       O300   2.347       .  S
Eu295       O299   2.347       .  S
Eu295       O310   2.355       .  S
Eu296       O310   2.346       .  S
Eu296       O300   2.360   1_655  S
Eu297       O299   2.367       .  S
Eu297       O312   2.343   1_655  S
Eu298       O299   2.352   1_455  S
Eu298       O310   2.349   1_455  S
Eu298       O312   2.359       .  S
Eu298       O300   2.354       .  S
C301       C1653   1.479       .  S
C302       C1314   1.494       .  S
C303       C1378   1.505       .  S
C304       C1445   1.482       .  S
C305       C1410   1.488       .  S
C306       C1349   1.497       .  S
C307       C1362   1.466       .  S
C308       C1397   1.486       .  S
H309        O310   0.965       .  S
H311        O312   0.965       .  S
C313        C314   1.531       .  S
C313        C319   1.527       .  S
C313        C317   1.549       .  S
C313       C1266   1.541       .  S
C314        H321   1.086       .  S
C314        C315   1.364       .  D
C315        C316   1.551       .  S
C315       C1346   1.482       .  S
C316        C320   1.554       .  S
C316        C318   1.549       .  S
C316        H322   1.107       .  S
C317        H323   1.079       .  S
C317        C318   1.371       .  D
C318       C1525   1.506       .  S
C319        H324   1.087       .  S
C319        C320   1.361       .  D
C320       C1282   1.503       .  S
C325        C326   1.535       .  S
C325        C331   1.527       .  S
C325        C329   1.561       .  S
C325       C1234   1.552       .  S
C326        H333   1.086       .  S
C326        C327   1.370       .  D
C327        C328   1.554       .  S
C327       C1509   1.505       .  S
C328        C332   1.554       .  S
C328        C330   1.534       .  S
C328        H334   1.105       .  S
C329        H335   1.078       .  S
C329        C330   1.368       .  D
C330       C1365   1.492       .  S
C331        H336   1.080       .  S
C331        C332   1.363       .  D
C332       C1250   1.514       .  S
C337        C338   1.534   1_545  S
C337        C343   1.539       .  S
C337        C341   1.547       .  S
C337       C1861   1.543       .  S
C338        H345   1.085       .  S
C338        C339   1.360       .  D
C339        C340   1.535   1_565  S
C339       C1573   1.478       .  S
C340        C344   1.541       .  S
C340        C342   1.555       .  S
C340        H346   1.109       .  S
C341        H347   1.079       .  S
C341        C342   1.376       .  D
C342       C1429   1.520       .  S
C343        H348   1.082       .  S
C343        C344   1.359       .  D
C344       C1218   1.480       .  S
C349        C350   1.532       .  S
C349        C355   1.532   1_545  S
C349        C353   1.543   1_545  S
C349       C2082   1.539       .  S
C350        H357   1.085       .  S
C350        C351   1.368       .  D
C351        C352   1.563   1_545  S
C351       C1413   1.499       .  S
C352        C356   1.556       .  S
C352        C354   1.536       .  S
C352        H358   1.108       .  S
C353        H359   1.086       .  S
C353        C354   1.369       .  D
C354       C1586   1.488       .  S
C355        H360   1.084   1_565  S
C355        C356   1.356       .  D
C356       C1202   1.506       .  S
C361        C362   1.543       .  S
C361        C367   1.536       .  S
C361        C365   1.554       .  S
C361       C1173   1.551       .  S
C362        H369   1.086       .  S
C362        C363   1.365       .  D
C363        C364   1.533       .  S
C363       C1541   1.477       .  S
C364        C368   1.544       .  S
C364        C366   1.544       .  S
C364        H370   1.111       .  S
C365        H371   1.081       .  S
C365        C366   1.372       .  D
C366       C1330   1.502       .  S
C367        H372   1.086       .  S
C367        C368   1.363       .  D
C368       C1186   1.498       .  S
C373        C374   1.522       .  S
C373        C379   1.533       .  S
C373        C377   1.543       .  S
C373       C1141   1.535       .  S
C374        H381   1.086       .  S
C374        C375   1.372       .  D
C375        C376   1.558       .  S
C375       C1381   1.514       .  S
C376        C380   1.552       .  S
C376        C378   1.535       .  S
C376        H382   1.101       .  S
C377        H383   1.082       .  S
C377        C378   1.366       .  D
C378       C1493   1.476       .  S
C379        H384   1.083       .  S
C379        C380   1.360       .  D
C380       C1154   1.505       .  S
C385        C386   1.532       .  S
C385        C391   1.528       .  S
C385        C389   1.530   1_545  S
C385       C1842   1.535       .  S
C386        H393   1.085       .  S
C386        C387   1.366       .  D
C387        C388   1.555       .  S
C387       C1442   1.478       .  S
C388        C392   1.563       .  S
C388        C390   1.552   1_545  S
C388        H394   1.105       .  S
C389        H395   1.086       .  S
C389        C390   1.367       .  D
C390       C1557   1.504       .  S
C391        H396   1.085       .  S
C391        C392   1.363       .  D
C392       C1122   1.520       .  S
C397        C398   1.539   1_545  S
C397        C403   1.533       .  S
C397        C401   1.540       .  S
C397       C2066   1.539       .  S
C398        H405   1.084       .  S
C398        C399   1.370       .  D
C399        C400   1.552   1_565  S
C399       C1605   1.493       .  S
C400        C404   1.553       .  S
C400        C402   1.523       .  S
C400        H406   1.100       .  S
C401        H407   1.086       .  S
C401        C402   1.362       .  D
C402       C1394   1.470       .  S
C403        H408   1.084       .  S
C403        C404   1.366       .  D
C404       C1106   1.520       .  S
O409        C420   1.292   1_556  A
O409       Eu445   2.466       .  S
O410        C421   1.288       .  A
O410       Eu444   2.454       .  S
O411        C422   1.287       .  A
O411       Eu417   2.436       .  S
O412        C423   1.288       .  A
O412       Eu417   2.444       .  S
O413        C423   1.290       .  A
O413       Eu447   2.458       .  S
O414        C422   1.294       .  A
O414       Eu446   2.477       .  S
O415        C421   1.293       .  A
O415       Eu417   2.469       .  S
O416        C420   1.287       .  A
O416       Eu417   2.443       .  S
Eu417       O427   2.347       .  S
Eu417       O419   2.356       .  S
Eu417       O418   2.329       .  S
Eu417       O425   2.343       .  S
O418       Eu447   2.347       .  S
O418       Eu444   2.339       .  S
O419       Eu445   2.344   1_554  S
O419       Eu446   2.353       .  S
C420       C1778   1.495       .  S
C421       C1170   1.504       .  S
C422        C994   1.464       .  S
C423       C1090   1.463       .  S
H424        O425   0.964       .  S
O425       Eu446   2.381       .  S
O425       Eu444   2.341       .  S
H426        O427   0.966       .  S
O427       Eu445   2.353   1_554  S
O427       Eu447   2.360       .  S
O428        C451   1.284       .  A
O428       Eu444   2.425       .  S
O429        C452   1.291       .  A
O429       Eu445   2.463       .  S
O430        C453   1.292       .  A
O430       Eu446   2.467       .  S
O431        C454   1.291       .  A
O431       Eu447   2.461       .  S
O432        C455   1.300       .  A
O432       Eu447   2.503   1_556  S
O433        C456   1.294       .  A
O433       Eu446   2.478   1_556  S
O434        C457   1.291       .  A
O434       Eu448   2.461       .  S
O435        C458   1.290       .  A
O435       Eu448   2.452       .  S
O436        C457   1.301       .  A
O436       Eu446   2.513   1_556  S
O437        C458   1.292       .  A
O437       Eu447   2.460   1_556  S
O438        C453   1.296       .  A
O438       Eu444   2.478       .  S
O439        C456   1.286       .  A
O439       Eu445   2.430       .  S
O440        C455   1.284       .  A
O440       Eu445   2.431       .  S
O441        C454   1.293       .  A
O441       Eu444   2.463       .  S
O442        C451   1.293   1_556  A
O442       Eu448   2.473       .  S
O443        C452   1.289       .  A
O443       Eu448   2.441       .  S
Eu444       O462   2.359       .  S
Eu444       O450   2.361       .  S
Eu445       O449   2.344       .  S
Eu445       O460   2.354       .  S
Eu446       O460   2.356   1_554  S
Eu446       O450   2.356       .  S
Eu447       O449   2.340   1_554  S
Eu447       O462   2.376       .  S
Eu448       O449   2.358       .  S
Eu448       O460   2.350       .  S
Eu448       O462   2.346   1_556  S
Eu448       O450   2.349   1_556  S
C451       C1682   1.463       .  S
C452       C1269   1.485       .  S
C453        C978   1.503       .  S
C454       C1042   1.484       .  S
C455       C1077   1.503       .  S
C456       C1013   1.467       .  S
C457       C1026   1.498       .  S
C458       C1061   1.467       .  S
H459        O460   0.965       .  S
H461        O462   0.965       .  S
O463        C474   1.289   1_556  A
O463       Eu499   2.449       .  S
O464        C475   1.291       .  A
O464       Eu498   2.459       .  S
O465        C476   1.287       .  A
O465       Eu471   2.439       .  S
O466        C477   1.290       .  A
O466       Eu471   2.460       .  S
O467        C477   1.296       .  A
O467       Eu501   2.480       .  S
O468        C476   1.296       .  A
O468       Eu500   2.483       .  S
O469        C475   1.290       .  A
O469       Eu471   2.451       .  S
O470        C474   1.289       .  A
O470       Eu471   2.441       .  S
Eu471       O481   2.357       .  S
Eu471       O473   2.350       .  S
Eu471       O472   2.341       .  S
Eu471       O479   2.359       .  S
O472       Eu501   2.361       .  S
O472       Eu498   2.357       .  S
O473       Eu499   2.354   1_554  S
O473       Eu500   2.362       .  S
C474       C1810   1.478       .  S
C475       C1138   1.469       .  S
C476        C882   1.494       .  S
C477        C946   1.507       .  S
H478        O479   0.965       .  S
O479       Eu500   2.340       .  S
O479       Eu498   2.351       .  S
H480        O481   0.965       .  S
O481       Eu499   2.360   1_554  S
O481       Eu501   2.330       .  S
O482        C505   1.292       .  A
O482       Eu498   2.458       .  S
O483        C506   1.292       .  A
O483       Eu499   2.469       .  S
O484        C507   1.291       .  A
O484       Eu500   2.466       .  S
O485        C508   1.292       .  A
O485       Eu501   2.465       .  S
O486        C509   1.297       .  A
O486       Eu501   2.486   1_556  S
O487        C510   1.290       .  A
O487       Eu500   2.456   1_556  S
O488        C511   1.289       .  A
O488       Eu502   2.446       .  S
O489        C512   1.293       .  A
O489       Eu502   2.459       .  S
O490        C511   1.295       .  A
O490       Eu500   2.480   1_556  S
O491        C512   1.286       .  A
O491       Eu501   2.437   1_556  S
O492        C507   1.294       .  A
O492       Eu498   2.470       .  S
O493        C510   1.290       .  A
O493       Eu499   2.453       .  S
O494        C509   1.291       .  A
O494       Eu499   2.464       .  S
O495        C508   1.290       .  A
O495       Eu498   2.453       .  S
O496        C505   1.293   1_556  A
O496       Eu502   2.468       .  S
O497        C506   1.295       .  A
O497       Eu502   2.485       .  S
Eu498       O516   2.356       .  S
Eu498       O504   2.351       .  S
Eu499       O503   2.345       .  S
Eu499       O514   2.350       .  S
Eu500       O514   2.342   1_554  S
Eu500       O504   2.362       .  S
Eu501       O503   2.366   1_554  S
Eu501       O516   2.344       .  S
Eu502       O503   2.347       .  S
Eu502       O514   2.349       .  S
Eu502       O516   2.354   1_556  S
Eu502       O504   2.358   1_556  S
C505       C1717   1.484       .  S
C506       C1237   1.492       .  S
C507        C869   1.503       .  S
C508        C962   1.471       .  S
C509        C933   1.511       .  S
C510        C898   1.465       .  S
C511        C850   1.486       .  S
C512        C914   1.493       .  S
H513        O514   0.964       .  S
H515        O516   0.965       .  S
C517        C518   1.552   1_655  S
C517        C523   1.527   1_655  S
C517        C521   1.535       .  S
C517       C1477   1.536       .  S
C518        H525   1.076       .  S
C518        C519   1.366       .  D
C519        C520   1.538       .  S
C519        C901   1.490       .  S
C520        C524   1.550       .  S
C520        C522   1.544   1_455  S
C520        H526   1.104       .  S
C521        H527   1.086       .  S
C521        C522   1.364       .  D
C522       C1074   1.496       .  S
C523        H528   1.086       .  S
C523        C524   1.361       .  D
C524        C837   1.496       .  S
C529        C530   1.548       .  S
C529        C535   1.526       .  S
C529        C533   1.544   1_655  S
C529       C1317   1.547       .  S
C530        H537   1.080       .  S
C530        C531   1.374       .  D
C531        C532   1.551       .  S
C531       C1058   1.506       .  S
C532        C536   1.548       .  S
C532        C534   1.528   1_655  S
C532        H538   1.108       .  S
C533        H539   1.086       .  S
C533        C534   1.364       .  D
C534        C853   1.479       .  S
C535        H540   1.087       .  S
C535        C536   1.363       .  D
C536        C821   1.495   1_655  S
C541        C542   1.531       .  S
C541        C547   1.533       .  S
C541        C545   1.544       .  S
C541       C2181   1.536       .  S
C542        H549   1.086       .  S
C542        C543   1.367       .  D
C543        C544   1.551       .  S
C543        C930   1.501       .  S
C544        C548   1.548       .  S
C544        C546   1.537       .  S
C544        H550   1.105       .  S
C545        H551   1.084       .  S
C545        C546   1.366       .  D
C546       C1010   1.477       .  S
C547        H552   1.086       .  S
C547        C548   1.361       .  D
C548        C802   1.493       .  S
C553        C554   1.537       .  S
C553        C559   1.532       .  S
C553        C557   1.552       .  S
C553       C1938   1.541       .  S
C554        H561   1.086       .  S
C554        C555   1.367       .  D
C555        C556   1.533       .  S
C555        C997   1.480       .  S
C556        C560   1.536       .  S
C556        C558   1.539       .  S
C556        H562   1.106       .  S
C557        H563   1.083       .  S
C557        C558   1.369       .  D
C558        C949   1.494       .  S
C559        H564   1.086       .  S
C559        C560   1.361       .  D
C560        C786   1.477       .  S
C565        C566   1.538   1_655  S
C565        C571   1.540       .  S
C565        C569   1.538       .  S
C565       C1301   1.536       .  S
C566        H573   1.085       .  S
C566        C567   1.367       .  D
C567        C568   1.546   1_455  S
C567        C866   1.488       .  S
C568        C572   1.545       .  S
C568        C570   1.533       .  S
C568        H574   1.106       .  S
C569        H575   1.086       .  S
C569        C570   1.362       .  D
C570       C1045   1.477       .  S
C571        H576   1.084       .  S
C571        C572   1.363       .  D
C572        C773   1.495       .  S
C577        C578   1.550       .  S
C577        C583   1.532       .  S
C577        C581   1.554   1_655  S
C577       C1461   1.552       .  S
C578        H585   1.085       .  S
C578        C579   1.377       .  D
C579        C580   1.541       .  S
C579       C1093   1.504       .  S
C580        C584   1.537       .  S
C580        C582   1.531   1_655  S
C580        H586   1.108       .  S
C581        H587   1.080       .  S
C581        C582   1.363       .  D
C582        C885   1.486       .  S
C583        H588   1.087       .  S
C583        C584   1.358       .  D
C584        C757   1.474       .  S
C589        C590   1.547       .  S
C589        C595   1.543       .  S
C589        C593   1.538       .  S
C589       C2165   1.553       .  S
C590        H597   1.083       .  S
C590        C591   1.379       .  D
C591        C592   1.549       .  S
C591       C1029   1.521       .  S
C592        C596   1.536       .  S
C592        C594   1.532       .  S
C592        H598   1.106       .  S
C593        H599   1.083       .  S
C593        C594   1.364       .  D
C594        C917   1.483       .  S
C595        H600   1.082       .  S
C595        C596   1.360       .  D
C596        C738   1.476       .  S
C601        C602   1.554       .  S
C601        C607   1.530       .  S
C601        C605   1.531       .  S
C601       C1922   1.542       .  S
C602        H609   1.079       .  S
C602        C603   1.362       .  D
C603        C604   1.530       .  S
C603        C965   1.481       .  S
C604        C608   1.553       .  S
C604        C606   1.545       .  S
C604        H610   1.103       .  S
C605        H611   1.086       .  S
C605        C606   1.363       .  D
C606        C981   1.487       .  S
C607        H612   1.086       .  S
C607        C608   1.367       .  D
C608        C725   1.504       .  S
O613        C624   1.297       .  A
O613       Eu649   2.506       .  S
O614        C625   1.292       .  A
O614       Eu648   2.469       .  S
O615        C626   1.303       .  A
O615       Eu621   2.535       .  S
O616        C627   1.290       .  A
O616       Eu621   2.459       .  S
O617        C627   1.290       .  A
O617       Eu651   2.447       .  S
O618        C626   1.281       .  A
O618       Eu650   2.398       .  S
O619        C625   1.289       .  A
O619       Eu621   2.440       .  S
O620        C624   1.282       .  A
O620       Eu621   2.399       .  S
Eu621       O631   2.366       .  S
Eu621       O623   2.338       .  S
Eu621       O622   2.366       .  S
Eu621       O629   2.314       .  S
O622       Eu651   2.366       .  S
O622       Eu648   2.355       .  S
O623       Eu649   2.343       .  S
O623       Eu650   2.357       .  S
C624       C2053   1.476       .  S
C625        C741   1.468       .  S
C626       C1285   1.486       .  S
C627       C1669   1.460       .  S
H628        O629   0.961       .  S
O629       Eu650   2.336       .  S
O629       Eu648   2.357       .  S
H630        O631   0.965       .  S
O631       Eu649   2.340       .  S
O631       Eu651   2.359       .  S
O632        C655   1.299       .  A
O632       Eu648   2.508       .  S
O633        C656   1.291       .  A
O633       Eu649   2.466       .  S
O634        C657   1.300       .  A
O634       Eu650   2.512       .  S
O635        C658   1.291       .  A
O635       Eu651   2.473       .  S
O636        C659   1.298       .  A
O636       Eu651   2.506       .  S
O637        C660   1.296       .  A
O637       Eu650   2.495       .  S
O638        C661   1.292       .  A
O638       Eu652   2.474       .  S
O639        C662   1.294       .  A
O639       Eu652   2.486       .  S
O640        C661   1.287       .  A
O640       Eu650   2.432       .  S
O641        C662   1.290       .  A
O641       Eu651   2.449       .  S
O642        C657   1.286       .  A
O642       Eu648   2.421       .  S
O643        C660   1.286       .  A
O643       Eu649   2.427       .  S
O644        C659   1.285       .  A
O644       Eu649   2.414       .  S
O645        C658   1.295       .  A
O645       Eu648   2.469       .  S
O646        C655   1.280       .  A
O646       Eu652   2.388       .  S
O647        C656   1.286       .  A
O647       Eu652   2.430       .  S
Eu648       O666   2.332       .  S
Eu648       O654   2.355       .  S
Eu649       O653   2.351       .  S
Eu649       O664   2.370       .  S
Eu650       O664   2.357       .  S
Eu650       O654   2.348       .  S
Eu651       O653   2.342       .  S
Eu651       O666   2.359       .  S
Eu652       O653   2.336       .  S
Eu652       O664   2.356       .  S
Eu652       O666   2.359       .  S
Eu652       O654   2.349       .  S
C655       C1637   1.474       .  S
C656        C789   1.461       .  S
C657        C805   1.487       .  S
C658       C1253   1.490       .  S
C659        C722   1.487       .  S
C660       C1189   1.472       .  S
C661       C1765   1.468       .  S
C662       C1157   1.478       .  S
H663        O664   0.964       .  S
H665        O666   0.965       .  S
O667        C678   1.299       .  A
O667       Eu703   2.515       .  S
O668        C679   1.293       .  A
O668       Eu702   2.478   1_455  S
O669        C680   1.303       .  A
O669       Eu675   2.538       .  S
O670        C681   1.294       .  A
O670       Eu675   2.482   1_545  S
O671        C681   1.285       .  A
O671       Eu705   2.420   1_556  S
O672        C680   1.279   1_655  A
O672       Eu704   2.377       .  S
O673        C679   1.292       .  A
O673       Eu675   2.454   1_545  S
O674        C678   1.280   1_556  A
O674       Eu675   2.383       .  S
Eu675       O685   2.369   1_566  S
Eu675       O677   2.343       .  S
Eu675       O676   2.348   1_565  S
Eu675       O683   2.328   1_455  S
O676       Eu705   2.360   1_556  S
O676       Eu702   2.359   1_455  S
O677       Eu703   2.338   1_556  S
O677       Eu704   2.340   1_455  S
C678       C1826   1.468       .  S
C679       C1109   1.483       .  S
C680        C834   1.494       .  S
C681       C1733   1.465       .  S
H682        O683   0.963       .  S
O683       Eu704   2.354       .  S
O683       Eu702   2.357   1_565  S
H684        O685   0.965       .  S
O685       Eu703   2.342   1_545  S
O685       Eu705   2.336       .  S
O686        C709   1.300       .  A
O686       Eu702   2.511       .  S
O687        C710   1.295       .  A
O687       Eu703   2.484   1_655  S
O688        C711   1.294       .  A
O688       Eu704   2.487       .  S
O689        C712   1.290       .  A
O689       Eu705   2.458   1_556  S
O690        C713   1.299       .  A
O690       Eu705   2.521       .  S
O691        C714   1.292       .  A
O691       Eu704   2.472   1_554  S
O692        C715   1.296       .  A
O692       Eu706   2.490   1_565  S
O693        C716   1.301       .  A
O693       Eu706   2.524       .  S
O694        C715   1.285   1_556  A
O694       Eu704   2.421       .  S
O695        C716   1.282       .  A
O695       Eu705   2.398   1_655  S
O696        C711   1.288   1_545  A
O696       Eu702   2.441       .  S
O697        C714   1.282   1_455  A
O697       Eu703   2.406       .  S
O698        C713   1.280       .  A
O698       Eu703   2.392   1_545  S
O699        C712   1.289   1_655  A
O699       Eu702   2.442       .  S
O700        C709   1.284   1_554  A
O700       Eu706   2.404       .  S
O701        C710   1.288   1_545  A
O701       Eu706   2.435       .  S
Eu702       O720   2.356       .  S
Eu702       O708   2.343       .  S
Eu703       O707   2.347   1_465  S
Eu703       O718   2.363   1_455  S
Eu704       O718   2.359   1_556  S
Eu704       O708   2.331   1_565  S
Eu705       O707   2.329   1_455  S
Eu705       O720   2.364   1_454  S
Eu706       O707   2.341       .  S
Eu706       O718   2.366   1_545  S
Eu706       O720   2.348   1_554  S
Eu706       O708   2.355   1_554  S
C709       C1698   1.488       .  S
C710       C1221   1.476       .  S
C711       C1205   1.472       .  S
C712        C818   1.459       .  S
C713       C1125   1.477       .  S
C714        C754   1.458       .  S
C715       C1797   1.473       .  S
C716        C770   1.490       .  S
H717        O718   0.965       .  S
H719        O720   0.964       .  S
C721        C722   1.408       .  A
C721        C726   1.402       .  A
C721        H728   1.083       .  S
C722        C723   1.407       .  A
C723        C730   1.506       .  S
C723        C724   1.410       .  A
C724        C725   1.418       .  A
C724        H729   1.083       .  S
C725        C726   1.414       .  A
C726        C727   1.507       .  S
C727        H731   1.111       .  S
C727        H732   1.108       .  S
C727        H733   1.109       .  S
C730        H734   1.110       .  S
C730        H735   1.111       .  S
C730        H736   1.111       .  S
C737        C738   1.397       .  A
C737        C742   1.394       .  A
C737        H744   1.084       .  S
C738        C739   1.415       .  A
C739        C746   1.501       .  S
C739        C740   1.405       .  A
C740        C741   1.399       .  A
C740        H745   1.084       .  S
C741        C742   1.414       .  A
C742        C743   1.507       .  S
C743        H747   1.111       .  S
C743        H748   1.106       .  S
C743        H749   1.110       .  S
C746        H750   1.110       .  S
C746        H751   1.108       .  S
C746        H752   1.111       .  S
C753        C754   1.394       .  A
C753        C758   1.397       .  A
C753        H760   1.085       .  S
C754        C755   1.413   1_655  A
C755        C762   1.507       .  S
C755        C756   1.401       .  A
C756        C757   1.398   1_455  A
C756        H761   1.084       .  S
C757        C758   1.420       .  A
C758        C759   1.506       .  S
C759        H763   1.110       .  S
C759        H764   1.104       .  S
C759        H765   1.111       .  S
C762        H766   1.110       .  S
C762        H767   1.108       .  S
C762        H768   1.111       .  S
C769        C770   1.413       .  A
C769        C774   1.402       .  A
C769        H776   1.084       .  S
C770        C771   1.408       .  A
C771        C778   1.505       .  S
C771        C772   1.408       .  A
C772        C773   1.414       .  A
C772        H777   1.084       .  S
C773        C774   1.411       .  A
C774        C775   1.508   1_655  S
C775        H779   1.111       .  S
C775        H780   1.109       .  S
C775        H781   1.108   1_455  S
C778        H782   1.109       .  S
C778        H783   1.110       .  S
C778        H784   1.111       .  S
C785        C786   1.407       .  A
C785        C790   1.399       .  A
C785        H792   1.083       .  S
C786        C787   1.407       .  A
C787        C794   1.506       .  S
C787        C788   1.402       .  A
C788        C789   1.404       .  A
C788        H793   1.084       .  S
C789        C790   1.407       .  A
C790        C791   1.508       .  S
C791        H795   1.111       .  S
C791        H796   1.110       .  S
C791        H797   1.111       .  S
C794        H798   1.109       .  S
C794        H799   1.110       .  S
C794        H800   1.111       .  S
C801        C802   1.414       .  A
C801        C806   1.406       .  A
C801        H808   1.084       .  S
C802        C803   1.408       .  A
C803        C810   1.507       .  S
C803        C804   1.402       .  A
C804        C805   1.413       .  A
C804        H809   1.083       .  S
C805        C806   1.408       .  A
C806        C807   1.506       .  S
C807        H811   1.111       .  S
C807        H812   1.110       .  S
C807        H813   1.108       .  S
C810        H814   1.110       .  S
C810        H815   1.108       .  S
C810        H816   1.111       .  S
C817        C818   1.397   1_655  A
C817        C822   1.402       .  A
C817        H824   1.084       .  S
C818        C819   1.407       .  A
C819        C826   1.508       .  S
C819        C820   1.397       .  A
C820        C821   1.410       .  A
C820        H825   1.084       .  S
C821        C822   1.416   1_455  A
C822        C823   1.496       .  S
C823        H827   1.111       .  S
C823        H828   1.110       .  S
C823        H829   1.107       .  S
C826        H830   1.108       .  S
C826        H831   1.110       .  S
C826        H832   1.111       .  S
C833        C834   1.415       .  A
C833        C838   1.401   1_455  A
C833        H840   1.084   1_455  S
C834        C835   1.408       .  A
C835        C842   1.505       .  S
C835        C836   1.411       .  A
C836        C837   1.416       .  A
C836        H841   1.084       .  S
C837        C838   1.409   1_455  A
C838        C839   1.510       .  S
C839        H843   1.106       .  S
C839        H844   1.111       .  S
C839        H845   1.111       .  S
C842        H846   1.109       .  S
C842        H847   1.111       .  S
C842        H848   1.111       .  S
C849        C850   1.406       .  A
C849        C854   1.406       .  A
C849        H856   1.084       .  S
C850        C851   1.420       .  A
C851        C858   1.509       .  S
C851        C852   1.404       .  A
C852        C853   1.398       .  A
C852        H857   1.085       .  S
C853        C854   1.411       .  A
C854        C855   1.505       .  S
C855        H859   1.111       .  S
C855        H860   1.108   1_455  S
C855        H861   1.110       .  S
C858        H862   1.111       .  S
C858        H863   1.109       .  S
C858        H864   1.111       .  S
C865        C866   1.400       .  A
C865        C870   1.408       .  A
C865        H872   1.082       .  S
C866        C867   1.413       .  A
C867        C874   1.508       .  S
C867        C868   1.405       .  A
C868        C869   1.411       .  A
C868        H873   1.084       .  S
C869        C870   1.425       .  A
C870        C871   1.509       .  S
C871        H875   1.111       .  S
C871        H876   1.110       .  S
C871        H877   1.111       .  S
C874        H878   1.108       .  S
C874        H879   1.110       .  S
C874        H880   1.111       .  S
C881        C882   1.405       .  A
C881        C886   1.404       .  A
C881        H888   1.084       .  S
C882        C883   1.425       .  A
C883        C890   1.510       .  S
C883        C884   1.407       .  A
C884        C885   1.399       .  A
C884        H889   1.084       .  S
C885        C886   1.412       .  A
C886        C887   1.504       .  S
C887        H891   1.111       .  S
C887        H892   1.107   1_455  S
C887        H893   1.111   1_455  S
C890        H894   1.111       .  S
C890        H895   1.110       .  S
C890        H896   1.111       .  S
C897        C898   1.398       .  A
C897        C902   1.403       .  A
C897        H904   1.085       .  S
C898        C899   1.410       .  A
C899        C906   1.509       .  S
C899        C900   1.401       .  A
C900        C901   1.406       .  A
C900        H905   1.084       .  S
C901        C902   1.423       .  A
C902        C903   1.511       .  S
C903        H907   1.111       .  S
C903        H908   1.108       .  S
C903        H909   1.108       .  S
C906        H910   1.110       .  S
C906        H911   1.109       .  S
C906        H912   1.111       .  S
C913        C914   1.408       .  A
C913        C918   1.399       .  A
C913        H920   1.083       .  S
C914        C915   1.424       .  A
C915        C922   1.510       .  S
C915        C916   1.402       .  A
C916        C917   1.401       .  A
C916        H921   1.085       .  S
C917        C918   1.413       .  A
C918        C919   1.508       .  S
C919        H923   1.111       .  S
C919        H924   1.108       .  S
C919        H925   1.104       .  S
C922        H926   1.108       .  S
C922        H927   1.110       .  S
C922        H928   1.111       .  S
C929        C930   1.402       .  A
C929        C934   1.409       .  A
C929        H936   1.084       .  S
C930        C931   1.416       .  A
C931        C938   1.502       .  S
C931        C932   1.410       .  A
C932        C933   1.410       .  A
C932        H937   1.083       .  S
C933        C934   1.427       .  A
C934        C935   1.509       .  S
C935        H939   1.111       .  S
C935        H940   1.109       .  S
C935        H941   1.110       .  S
C938        H942   1.111       .  S
C938        H943   1.108       .  S
C938        H944   1.106       .  S
C945        C946   1.410       .  A
C945        C950   1.408       .  A
C945        H952   1.083       .  S
C946        C947   1.427       .  A
C947        C954   1.509       .  S
C947        C948   1.408       .  A
C948        C949   1.400       .  A
C948        H953   1.084       .  S
C949        C950   1.414       .  A
C950        C951   1.506       .  S
C951        H955   1.111       .  S
C951        H956   1.108       .  S
C951        H957   1.109       .  S
C954        H958   1.111       .  S
C954        H959   1.110       .  S
C954        H960   1.111       .  S
C961        C962   1.401       .  A
C961        C966   1.402       .  A
C961        H968   1.082       .  S
C962        C963   1.410       .  A
C963        C970   1.506       .  S
C963        C964   1.404       .  A
C964        C965   1.405       .  A
C964        H969   1.084       .  S
C965        C966   1.413       .  A
C966        C967   1.507       .  S
C967        H971   1.111       .  S
C967        H972   1.107       .  S
C967        H973   1.110       .  S
C970        H974   1.108       .  S
C970        H975   1.111       .  S
C970        H976   1.111       .  S
C977        C978   1.411       .  A
C977        C982   1.404       .  A
C977        H984   1.084       .  S
C978        C979   1.425       .  A
C979        C986   1.509       .  S
C979        C980   1.410       .  A
C980        C981   1.401       .  A
C980        H985   1.084       .  S
C981        C982   1.411       .  A
C982        C983   1.508       .  S
C983        H987   1.110       .  S
C983        H988   1.109       .  S
C983        H989   1.111       .  S
C986        H990   1.111       .  S
C986        H991   1.111       .  S
C986        H992   1.110       .  S
C993        C994   1.400       .  A
C993        C998   1.402       .  A
C993       H1000   1.085       .  S
C994        C995   1.410       .  A
C995       C1002   1.503       .  S
C995        C996   1.397       .  A
C996        C997   1.403       .  A
C996       H1001   1.085       .  S
C997        C998   1.416       .  A
C998        C999   1.508       .  S
C999       H1003   1.105       .  S
C999       H1004   1.111       .  S
C999       H1005   1.109       .  S
C1002      H1006   1.109       .  S
C1002      H1007   1.108       .  S
C1002      H1008   1.110       .  S
C1009      C1010   1.402       .  A
C1009      C1014   1.399       .  A
C1009      H1016   1.084       .  S
C1010      C1011   1.412       .  A
C1011      C1018   1.507       .  S
C1011      C1012   1.403       .  A
C1012      C1013   1.402       .  A
C1012      H1017   1.084       .  S
C1013      C1014   1.407       .  A
C1014      C1015   1.501       .  S
C1015      H1019   1.111       .  S
C1015      H1020   1.111       .  S
C1015      H1021   1.110       .  S
C1018      H1022   1.111       .  S
C1018      H1023   1.107       .  S
C1018      H1024   1.111       .  S
C1025      C1026   1.403       .  A
C1025      C1030   1.413       .  A
C1025      H1032   1.085       .  S
C1026      C1027   1.418       .  A
C1027      C1034   1.505       .  S
C1027      C1028   1.407       .  A
C1028      C1029   1.411       .  A
C1028      H1033   1.082       .  S
C1029      C1030   1.427       .  A
C1030      C1031   1.504       .  S
C1031      H1035   1.111       .  S
C1031      H1036   1.110       .  S
C1031      H1037   1.098       .  S
C1034      H1038   1.110       .  S
C1034      H1039   1.101       .  S
C1034      H1040   1.110       .  S
C1041      C1042   1.405       .  A
C1041      C1046   1.402       .  A
C1041      H1048   1.085       .  S
C1042      C1043   1.418       .  A
C1043      C1050   1.507       .  S
C1043      C1044   1.405       .  A
C1044      C1045   1.400       .  A
C1044      H1049   1.084       .  S
C1045      C1046   1.412       .  A
C1046      C1047   1.507       .  S
C1047      H1051   1.110       .  S
C1047      H1052   1.110       .  S
C1047      H1053   1.106       .  S
C1050      H1054   1.109       .  S
C1050      H1055   1.110       .  S
C1050      H1056   1.111       .  S
C1057      C1058   1.407       .  A
C1057      C1062   1.401       .  A
C1057      H1064   1.067       .  S
C1058      C1059   1.427       .  A
C1059      C1066   1.509       .  S
C1059      C1060   1.406       .  A
C1060      C1061   1.398       .  A
C1060      H1065   1.085       .  S
C1061      C1062   1.404       .  A
C1062      C1063   1.510       .  S
C1063      H1067   1.111       .  S
C1063      H1068   1.111       .  S
C1063      H1069   1.110       .  S
C1066      H1070   1.107       .  S
C1066      H1071   1.111       .  S
C1066      H1072   1.110       .  S
C1073      C1074   1.401       .  A
C1073      C1078   1.407       .  A
C1073      H1080   1.085       .  S
C1074      C1075   1.416       .  A
C1075      C1082   1.502       .  S
C1075      C1076   1.405       .  A
C1076      C1077   1.405       .  A
C1076      H1081   1.083       .  S
C1077      C1078   1.429       .  A
C1078      C1079   1.511       .  S
C1079      H1083   1.111       .  S
C1079      H1084   1.110       .  S
C1079      H1085   1.108       .  S
C1082      H1086   1.106   1_655  S
C1082      H1087   1.103       .  S
C1082      H1088   1.111       .  S
C1089      C1090   1.390       .  A
C1089      C1094   1.394       .  A
C1089      H1096   1.086       .  S
C1090      C1091   1.410       .  A
C1091      C1098   1.507       .  S
C1091      C1092   1.407       .  A
C1092      C1093   1.413       .  A
C1092      H1097   1.083       .  S
C1093      C1094   1.426       .  A
C1094      C1095   1.502       .  S
C1095      H1099   1.111       .  S
C1095      H1100   1.110       .  S
C1095      H1101   1.088       .  S
C1098      H1102   1.110       .  S
C1098      H1103   1.109       .  S
C1098      H1104   1.110       .  S
C1105      C1106   1.416       .  A
C1105      C1110   1.393       .  A
C1105      H1112   1.083       .  S
C1106      C1107   1.423       .  A
C1107      C1114   1.501       .  S
C1107      C1108   1.415       .  A
C1108      C1109   1.402       .  A
C1108      H1113   1.080       .  S
C1109      C1110   1.406       .  A
C1110      C1111   1.506       .  S
C1111      H1115   1.111       .  S
C1111      H1116   1.111       .  S
C1111      H1117   1.106       .  S
C1114      H1118   1.107   1_545  S
C1114      H1119   1.108       .  S
C1114      H1120   1.109       .  S
C1121      C1122   1.415       .  A
C1121      C1126   1.395       .  A
C1121      H1128   1.083   1_545  S
C1122      C1123   1.423       .  A
C1123      C1130   1.501       .  S
C1123      C1124   1.419       .  A
C1124      C1125   1.406       .  A
C1124      H1129   1.084       .  S
C1125      C1126   1.405       .  A
C1126      C1127   1.509       .  S
C1127      H1131   1.111   1_545  S
C1127      H1132   1.111       .  S
C1127      H1133   1.107   1_545  S
C1130      H1134   1.102       .  S
C1130      H1135   1.108       .  S
C1130      H1136   1.111       .  S
C1137      C1138   1.403       .  A
C1137      C1142   1.403       .  A
C1137      H1144   1.085       .  S
C1138      C1139   1.406       .  A
C1139      C1146   1.506       .  S
C1139      C1140   1.399       .  A
C1140      C1141   1.413       .  A
C1140      H1145   1.083       .  S
C1141      C1142   1.419       .  A
C1142      C1143   1.506       .  S
C1143      H1147   1.110       .  S
C1143      H1148   1.108       .  S
C1143      H1149   1.111       .  S
C1146      H1150   1.110       .  S
C1146      H1151   1.110       .  S
C1146      H1152   1.111       .  S
C1153      C1154   1.403       .  A
C1153      C1158   1.404       .  A
C1153      H1160   1.081       .  S
C1154      C1155   1.430       .  A
C1155      C1162   1.508       .  S
C1155      C1156   1.405       .  A
C1156      C1157   1.395       .  A
C1156      H1161   1.084       .  S
C1157      C1158   1.412       .  A
C1158      C1159   1.504       .  S
C1159      H1163   1.105       .  S
C1159      H1164   1.102       .  S
C1159      H1165   1.109       .  S
C1162      H1166   1.109       .  S
C1162      H1167   1.110       .  S
C1162      H1168   1.111       .  S
C1169      C1170   1.403       .  A
C1169      C1174   1.406       .  A
C1169      H1176   1.084       .  S
C1170      C1171   1.422       .  A
C1171      C1178   1.511       .  S
C1171      C1172   1.409       .  A
C1172      C1173   1.411       .  A
C1172      H1177   1.075       .  S
C1173      C1174   1.432       .  A
C1174      C1175   1.511       .  S
C1175      H1179   1.111       .  S
C1175      H1180   1.096       .  S
C1175      H1181   1.111       .  S
C1178      H1182   1.110       .  S
C1178      H1183   1.110       .  S
C1178      H1184   1.111       .  S
C1185      C1186   1.405       .  A
C1185      C1190   1.408       .  A
C1185      H1192   1.084       .  S
C1186      C1187   1.427       .  A
C1187      C1194   1.506       .  S
C1187      C1188   1.402       .  A
C1188      C1189   1.395       .  A
C1188      H1193   1.085       .  S
C1189      C1190   1.411       .  A
C1190      C1191   1.504       .  S
C1191      H1195   1.111       .  S
C1191      H1196   1.110       .  S
C1191      H1197   1.109       .  S
C1194      H1198   1.098       .  S
C1194      H1199   1.111       .  S
C1194      H1200   1.111       .  S
C1201      C1202   1.402       .  A
C1201      C1206   1.408       .  A
C1201      H1208   1.082       .  S
C1202      C1203   1.433       .  A
C1203      C1210   1.506       .  S
C1203      C1204   1.400       .  A
C1204      C1205   1.389       .  A
C1204      H1209   1.084       .  S
C1205      C1206   1.410       .  A
C1206      C1207   1.501       .  S
C1207      H1211   1.108       .  S
C1207      H1212   1.111       .  S
C1207      H1213   1.104       .  S
C1210      H1214   1.108       .  S
C1210      H1215   1.110       .  S
C1210      H1216   1.111       .  S
C1217      C1218   1.407   1_565  A
C1217      C1222   1.409       .  A
C1217      H1224   1.083       .  S
C1218      C1219   1.409       .  A
C1219      C1226   1.507       .  S
C1219      C1220   1.401       .  A
C1220      C1221   1.404   1_545  A
C1220      H1225   1.084       .  S
C1221      C1222   1.410       .  A
C1222      C1223   1.507       .  S
C1223      H1227   1.111       .  S
C1223      H1228   1.110       .  S
C1223      H1229   1.111       .  S
C1226      H1230   1.107       .  S
C1226      H1231   1.110       .  S
C1226      H1232   1.111       .  S
C1233      C1234   1.410       .  A
C1233      C1238   1.404       .  A
C1233      H1240   1.077       .  S
C1234      C1235   1.432       .  A
C1235      C1242   1.510       .  S
C1235      C1236   1.411       .  A
C1236      C1237   1.402       .  A
C1236      H1241   1.084       .  S
C1237      C1238   1.415       .  A
C1238      C1239   1.507       .  S
C1239      H1243   1.111       .  S
C1239      H1244   1.110       .  S
C1239      H1245   1.109       .  S
C1242      H1246   1.104       .  S
C1242      H1247   1.111       .  S
C1242      H1248   1.110       .  S
C1249      C1250   1.410       .  A
C1249      C1254   1.413       .  A
C1249      H1256   1.080       .  S
C1250      C1251   1.426       .  A
C1251      C1258   1.510       .  S
C1251      C1252   1.396       .  A
C1252      C1253   1.398       .  A
C1252      H1257   1.085       .  S
C1253      C1254   1.421       .  A
C1254      C1255   1.507       .  S
C1255      H1259   1.111       .  S
C1255      H1260   1.104       .  S
C1255      H1261   1.106       .  S
C1258      H1262   1.109       .  S
C1258      H1263   1.111       .  S
C1258      H1264   1.111       .  S
C1265      C1266   1.412       .  A
C1265      C1270   1.405       .  A
C1265      H1272   1.075       .  S
C1266      C1267   1.429       .  A
C1267      C1274   1.512       .  S
C1267      C1268   1.400       .  A
C1268      C1269   1.400       .  A
C1268      H1273   1.085       .  S
C1269      C1270   1.414       .  A
C1270      C1271   1.509       .  S
C1271      H1275   1.111       .  S
C1271      H1276   1.111       .  S
C1271      H1277   1.108       .  S
C1274      H1278   1.100       .  S
C1274      H1279   1.111       .  S
C1274      H1280   1.111       .  S
C1281      C1282   1.407       .  A
C1281      C1286   1.399       .  A
C1281      H1288   1.085       .  S
C1282      C1283   1.416       .  A
C1283      C1290   1.502       .  S
C1283      C1284   1.413       .  A
C1284      C1285   1.404       .  A
C1284      H1289   1.076       .  S
C1285      C1286   1.416       .  A
C1286      C1287   1.508       .  S
C1287      H1291   1.110       .  S
C1287      H1292   1.106       .  S
C1287      H1293   1.109       .  S
C1290      H1294   1.102       .  S
C1290      H1295   1.108       .  S
C1290      H1296   1.111       .  S
C1297      C1298   1.400   1_455  A
C1297      C1302   1.404       .  A
C1297      H1304   1.085       .  S
C1298      C1299   1.407       .  A
C1299      C1306   1.510       .  S
C1299      C1300   1.397       .  A
C1300      C1301   1.414       .  A
C1300      H1305   1.079       .  S
C1301      C1302   1.426   1_655  A
C1302      C1303   1.509       .  S
C1303      H1307   1.111       .  S
C1303      H1308   1.105       .  S
C1303      H1309   1.110       .  S
C1306      H1310   1.109       .  S
C1306      H1311   1.107       .  S
C1306      H1312   1.111       .  S
C1313      C1314   1.399   1_455  A
C1313      C1318   1.407       .  A
C1313      H1320   1.085       .  S
C1314      C1315   1.419       .  A
C1315      C1322   1.509       .  S
C1315      C1316   1.407       .  A
C1316      C1317   1.410       .  A
C1316      H1321   1.077       .  S
C1317      C1318   1.432   1_655  A
C1318      C1319   1.511       .  S
C1319      H1323   1.111       .  S
C1319      H1324   1.111       .  S
C1319      H1325   1.102       .  S
C1322      H1326   1.109       .  S
C1322      H1327   1.110       .  S
C1322      H1328   1.111       .  S
C1329      C1330   1.404       .  A
C1329      C1334   1.414       .  A
C1329      H1336   1.084       .  S
C1330      C1331   1.412       .  A
C1331      C1338   1.508       .  S
C1331      C1332   1.410       .  A
C1332      C1333   1.412       .  A
C1332      H1337   1.081       .  S
C1333      C1334   1.428       .  A
C1334      C1335   1.509       .  S
C1335      H1339   1.111       .  S
C1335      H1340   1.110       .  S
C1335      H1341   1.110       .  S
C1338      H1342   1.107       .  S
C1338      H1343   1.111       .  S
C1338      H1344   1.111       .  S
C1345      C1346   1.400       .  A
C1345      C1350   1.405       .  A
C1345      H1352   1.082       .  S
C1346      C1347   1.412       .  A
C1347      C1354   1.507       .  S
C1347      C1348   1.403       .  A
C1348      C1349   1.410       .  A
C1348      H1353   1.084       .  S
C1349      C1350   1.423       .  A
C1350      C1351   1.510       .  S
C1351      H1355   1.111       .  S
C1351      H1356   1.109       .  S
C1351      H1357   1.111       .  S
C1354      H1358   1.110       .  S
C1354      H1359   1.107       .  S
C1354      H1360   1.110       .  S
C1361      C1362   1.400       .  A
C1361      C1366   1.407       .  A
C1361      H1368   1.085       .  S
C1362      C1363   1.406       .  A
C1363      C1370   1.507       .  S
C1363      C1364   1.399       .  A
C1364      C1365   1.407       .  A
C1364      H1369   1.083       .  S
C1365      C1366   1.422       .  A
C1366      C1367   1.509       .  S
C1367      H1371   1.111       .  S
C1367      H1372   1.107       .  S
C1367      H1373   1.108       .  S
C1370      H1374   1.111       .  S
C1370      H1375   1.109       .  S
C1370      H1376   1.111       .  S
C1377      C1378   1.408       .  A
C1377      C1382   1.412       .  A
C1377      H1384   1.083       .  S
C1378      C1379   1.423       .  A
C1379      C1386   1.512       .  S
C1379      C1380   1.403       .  A
C1380      C1381   1.407       .  A
C1380      H1385   1.084       .  S
C1381      C1382   1.423       .  A
C1382      C1383   1.504       .  S
C1383      H1387   1.111       .  S
C1383      H1388   1.103       .  S
C1383      H1389   1.107       .  S
C1386      H1390   1.111       .  S
C1386      H1391   1.106       .  S
C1386      H1392   1.111       .  S
C1393      C1394   1.400       .  A
C1393      C1398   1.402       .  A
C1393      H1400   1.082       .  S
C1394      C1395   1.408       .  A
C1395      C1402   1.508       .  S
C1395      C1396   1.398       .  A
C1396      C1397   1.409       .  A
C1396      H1401   1.084       .  S
C1397      C1398   1.420       .  A
C1398      C1399   1.508       .  S
C1399      H1403   1.111       .  S
C1399      H1404   1.110       .  S
C1399      H1405   1.110       .  S
C1402      H1406   1.107       .  S
C1402      H1407   1.111       .  S
C1402      H1408   1.110       .  S
C1409      C1410   1.397       .  A
C1409      C1414   1.404       .  A
C1409      H1416   1.085       .  S
C1410      C1411   1.417       .  A
C1411      C1418   1.506       .  S
C1411      C1412   1.416       .  A
C1412      C1413   1.406       .  A
C1412      H1417   1.084       .  S
C1413      C1414   1.423       .  A
C1414      C1415   1.506       .  S
C1415      H1419   1.110       .  S
C1415      H1420   1.111       .  S
C1415      H1421   1.101       .  S
C1418      H1422   1.110       .  S
C1418      H1423   1.111       .  S
C1418      H1424   1.111       .  S
C1425      C1426   1.398       .  A
C1425      C1430   1.411       .  A
C1425      H1432   1.085       .  S
C1426      C1427   1.412       .  A
C1427      C1434   1.507       .  S
C1427      C1428   1.412       .  A
C1428      C1429   1.412       .  A
C1428      H1433   1.081       .  S
C1429      C1430   1.431       .  A
C1430      C1431   1.507       .  S
C1431      H1435   1.111       .  S
C1431      H1436   1.108       .  S
C1431      H1437   1.105       .  S
C1434      H1438   1.110       .  S
C1434      H1439   1.107       .  S
C1434      H1440   1.111       .  S
C1441      C1442   1.398       .  A
C1441      C1446   1.403       .  A
C1441      H1448   1.081       .  S
C1442      C1443   1.413       .  A
C1443      C1450   1.508       .  S
C1443      C1444   1.403       .  A
C1444      C1445   1.404       .  A
C1444      H1449   1.083       .  S
C1445      C1446   1.419       .  A
C1446      C1447   1.509       .  S
C1447      H1451   1.111       .  S
C1447      H1452   1.110       .  S
C1447      H1453   1.109       .  S
C1450      H1454   1.109       .  S
C1450      H1455   1.103       .  S
C1450      H1456   1.111       .  S
C1457      C1458   1.400       .  A
C1457      C1462   1.406       .  A
C1457      H1464   1.085       .  S
C1458      C1459   1.418   1_655  A
C1459      C1466   1.510       .  S
C1459      C1460   1.406       .  A
C1460      C1461   1.414   1_455  A
C1460      H1465   1.073       .  S
C1461      C1462   1.432       .  A
C1462      C1463   1.509       .  S
C1463      H1467   1.111       .  S
C1463      H1468   1.110       .  S
C1463      H1469   1.095       .  S
C1466      H1470   1.108       .  S
C1466      H1471   1.110       .  S
C1466      H1472   1.111       .  S
C1473      C1474   1.396       .  A
C1473      C1478   1.403       .  A
C1473      H1480   1.085       .  S
C1474      C1475   1.412   1_655  A
C1475      C1482   1.511       .  S
C1475      C1476   1.397       .  A
C1476      C1477   1.410   1_455  A
C1476      H1481   1.075       .  S
C1477      C1478   1.431       .  A
C1478      C1479   1.514       .  S
C1479      H1483   1.111       .  S
C1479      H1484   1.105       .  S
C1479      H1485   1.107       .  S
C1482      H1486   1.108       .  S
C1482      H1487   1.110       .  S
C1482      H1488   1.111       .  S
C1489      C1490   1.398       .  A
C1489      C1494   1.398       .  A
C1489      H1496   1.083       .  S
C1490      C1491   1.410       .  A
C1491      C1498   1.508       .  S
C1491      C1492   1.402       .  A
C1492      C1493   1.403       .  A
C1492      H1497   1.084       .  S
C1493      C1494   1.415       .  A
C1494      C1495   1.508       .  S
C1495      H1499   1.111       .  S
C1495      H1500   1.110       .  S
C1495      H1501   1.107       .  S
C1498      H1502   1.111       .  S
C1498      H1503   1.110       .  S
C1498      H1504   1.111       .  S
C1505      C1506   1.407       .  A
C1505      C1510   1.407       .  A
C1505      H1512   1.083       .  S
C1506      C1507   1.426       .  A
C1507      C1514   1.508       .  S
C1507      C1508   1.415       .  A
C1508      C1509   1.406       .  A
C1508      H1513   1.084       .  S
C1509      C1510   1.417       .  A
C1510      C1511   1.503       .  S
C1511      H1515   1.107       .  S
C1511      H1516   1.111       .  S
C1511      H1517   1.104       .  S
C1514      H1518   1.109       .  S
C1514      H1519   1.111       .  S
C1514      H1520   1.111       .  S
C1521      C1522   1.410       .  A
C1521      C1526   1.403       .  A
C1521      H1528   1.084       .  S
C1522      C1523   1.424       .  A
C1523      C1530   1.508       .  S
C1523      C1524   1.415       .  A
C1524      C1525   1.407       .  A
C1524      H1529   1.081       .  S
C1525      C1526   1.417       .  A
C1526      C1527   1.509       .  S
C1527      H1531   1.111       .  S
C1527      H1532   1.110       .  S
C1527      H1533   1.108       .  S
C1530      H1534   1.109       .  S
C1530      H1535   1.111       .  S
C1530      H1536   1.111       .  S
C1537      C1538   1.398       .  A
C1537      C1542   1.395       .  A
C1537      H1544   1.085       .  S
C1538      C1539   1.413       .  A
C1539      C1546   1.505       .  S
C1539      C1540   1.406       .  A
C1540      C1541   1.403       .  A
C1540      H1545   1.084       .  S
C1541      C1542   1.412       .  A
C1542      C1543   1.502       .  S
C1543      H1547   1.106       .  S
C1543      H1548   1.106       .  S
C1543      H1549   1.111       .  S
C1546      H1550   1.110       .  S
C1546      H1551   1.111       .  S
C1546      H1552   1.111       .  S
C1553      C1554   1.413       .  A
C1553      C1558   1.406       .  A
C1553      H1560   1.084       .  S
C1554      C1555   1.424       .  A
C1555      C1562   1.503       .  S
C1555      C1556   1.413       .  A
C1556      C1557   1.404       .  A
C1556      H1561   1.083       .  S
C1557      C1558   1.415       .  A
C1558      C1559   1.508       .  S
C1559      H1563   1.111       .  S
C1559      H1564   1.110       .  S
C1559      H1565   1.108       .  S
C1562      H1566   1.110       .  S
C1562      H1567   1.103       .  S
C1562      H1568   1.111       .  S
C1569      C1570   1.411       .  A
C1569      C1574   1.404       .  A
C1569      H1576   1.083       .  S
C1570      C1571   1.426       .  A
C1571      C1578   1.506       .  S
C1571      C1572   1.400       .  A
C1572      C1573   1.395       .  A
C1572      H1577   1.085       .  S
C1573      C1574   1.412       .  A
C1574      C1575   1.509       .  S
C1575      H1579   1.111       .  S
C1575      H1580   1.109       .  S
C1575      H1581   1.108       .  S
C1578      H1582   1.102       .  S
C1578      H1583   1.101       .  S
C1578      H1584   1.111       .  S
C1585      C1586   1.405       .  A
C1585      C1590   1.403       .  A
C1585      H1592   1.082       .  S
C1586      C1587   1.417       .  A
C1587      C1594   1.505       .  S
C1587      C1588   1.403       .  A
C1588      C1589   1.399       .  A
C1588      H1593   1.085       .  S
C1589      C1590   1.407       .  A
C1590      C1591   1.500       .  S
C1591      H1595   1.110       .  S
C1591      H1596   1.108       .  S
C1591      H1597   1.102       .  S
C1594      H1598   1.110       .  S
C1594      H1599   1.103       .  S
C1594      H1600   1.111       .  S
C1601      C1602   1.401       .  A
C1601      C1606   1.409       .  A
C1601      H1608   1.084       .  S
C1602      C1603   1.412       .  A
C1603      C1610   1.506       .  S
C1603      C1604   1.407       .  A
C1604      C1605   1.403       .  A
C1604      H1609   1.082       .  S
C1605      C1606   1.420       .  A
C1606      C1607   1.508       .  S
C1607      H1611   1.111       .  S
C1607      H1612   1.107       .  S
C1607      H1613   1.108       .  S
C1610      H1614   1.110       .  S
C1610      H1615   1.110   1_455  S
C1610      H1616   1.111       .  S
C1617      C1618   1.409       .  A
C1617      C1622   1.398       .  A
C1617      H1624   1.076       .  S
C1618      C1619   1.423       .  A
C1619      C1626   1.517       .  S
C1619      C1620   1.393       .  A
C1620      C1621   1.402       .  A
C1620      H1625   1.084       .  S
C1621      C1622   1.412       .  A
C1622      C1623   1.510       .  S
C1623      H1627   1.111       .  S
C1623      H1628   1.111       .  S
C1623      H1629   1.109       .  S
C1626      H1630   1.108       .  S
C1626      H1631   1.105       .  S
C1626      H1632   1.111       .  S
C1633      C1634   1.398       .  A
C1633      C1638   1.392       .  A
C1633      H1640   1.086       .  S
C1634      C1635   1.412       .  A
C1635      C1642   1.505       .  S
C1635      C1636   1.410       .  A
C1636      C1637   1.405       .  A
C1636      H1641   1.084       .  S
C1637      C1638   1.419       .  A
C1638      C1639   1.509       .  S
C1639      H1643   1.111       .  S
C1639      H1644   1.102       .  S
C1639      H1645   1.110       .  S
C1642      H1646   1.111       .  S
C1642      H1647   1.109       .  S
C1642      H1648   1.110       .  S
C1649      C1650   1.416       .  A
C1649      C1654   1.404       .  A
C1649      H1656   1.079       .  S
C1650      C1651   1.426       .  A
C1651      C1658   1.509       .  S
C1651      C1652   1.408       .  A
C1652      C1653   1.401       .  A
C1652      H1657   1.085       .  S
C1653      C1654   1.406       .  A
C1654      C1655   1.506       .  S
C1655      H1659   1.111       .  S
C1655      H1660   1.107       .  S
C1655      H1661   1.106       .  S
C1658      H1662   1.110       .  S
C1658      H1663   1.104       .  S
C1658      H1664   1.111       .  S
C1665      C1666   1.409       .  A
C1665      C1670   1.401       .  A
C1665      H1672   1.084       .  S
C1666      C1667   1.412       .  A
C1667      C1674   1.497       .  S
C1667      C1668   1.401       .  A
C1668      C1669   1.399       .  A
C1668      H1673   1.085       .  S
C1669      C1670   1.407       .  A
C1670      C1671   1.507       .  S
C1671      H1675   1.111       .  S
C1671      H1676   1.110       .  S
C1671      H1677   1.109       .  S
C1674      H1678   1.111       .  S
C1674      H1679   1.109       .  S
C1674      H1680   1.108       .  S
C1681      C1682   1.395       .  A
C1681      C1686   1.400       .  A
C1681      H1688   1.085       .  S
C1682      C1683   1.407       .  A
C1683      C1690   1.509       .  S
C1683      C1684   1.403       .  A
C1684      C1685   1.410       .  A
C1684      H1689   1.083   1_554  S
C1685      C1686   1.427       .  A
C1686      C1687   1.510       .  S
C1687      H1691   1.111       .  S
C1687      H1692   1.110       .  S
C1687      H1693   1.108       .  S
C1690      H1694   1.105   1_554  S
C1690      H1695   1.110       .  S
C1690      H1696   1.111       .  S
C1697      C1698   1.411       .  A
C1697      C1702   1.401       .  A
C1697      H1704   1.084   1_556  S
C1698      C1699   1.409       .  A
C1699      C1706   1.506       .  S
C1699      C1700   1.408       .  A
C1700      C1701   1.414       .  A
C1700      H1705   1.084       .  S
C1701      C1702   1.411       .  A
C1702      C1703   1.508   1_556  S
C1703      H1707   1.111       .  S
C1703      H1708   1.107       .  S
C1703      H1709   1.110       .  S
C1706      H1710   1.110       .  S
C1706      H1711   1.111       .  S
C1706      H1712   1.111       .  S
C1713      C1714   1.410   1_556  A
C1713      C1718   1.404       .  A
C1713      H1720   1.075       .  S
C1714      C1715   1.432       .  A
C1715      C1722   1.512       .  S
C1715      C1716   1.404       .  A
C1716      C1717   1.398       .  A
C1716      H1721   1.085       .  S
C1717      C1718   1.414   1_554  A
C1718      C1719   1.506       .  S
C1719      H1723   1.111       .  S
C1719      H1724   1.110       .  S
C1719      H1725   1.109       .  S
C1722      H1726   1.102       .  S
C1722      H1727   1.110       .  S
C1722      H1728   1.111       .  S
C1729      C1730   1.412       .  A
C1729      C1734   1.393       .  A
C1729      H1736   1.082       .  S
C1730      C1731   1.425   1_556  A
C1731      C1738   1.504       .  S
C1731      C1732   1.409   1_554  A
C1732      C1733   1.400       .  A
C1732      H1737   1.085   1_556  S
C1733      C1734   1.405       .  A
C1734      C1735   1.508       .  S
C1735      H1739   1.111       .  S
C1735      H1740   1.109       .  S
C1735      H1741   1.101       .  S
C1738      H1742   1.103       .  S
C1738      H1743   1.108       .  S
C1738      H1744   1.111       .  S
C1745      C1746   1.419       .  A
C1745      C1750   1.407       .  A
C1745      H1752   1.078       .  S
C1746      C1747   1.425       .  A
C1747      C1754   1.510       .  S
C1747      C1748   1.403       .  A
C1748      C1749   1.398       .  A
C1748      H1753   1.085       .  S
C1749      C1750   1.405       .  A
C1750      C1751   1.508       .  S
C1751      H1755   1.111       .  S
C1751      H1756   1.110       .  S
C1751      H1757   1.111       .  S
C1754      H1758   1.103       .  S
C1754      H1759   1.110       .  S
C1754      H1760   1.108       .  S
C1761      C1762   1.401       .  A
C1761      C1766   1.406       .  A
C1761      H1768   1.084       .  S
C1762      C1763   1.419       .  A
C1763      C1770   1.508       .  S
C1763      C1764   1.400       .  A
C1764      C1765   1.396       .  A
C1764      H1769   1.085       .  S
C1765      C1766   1.413       .  A
C1766      C1767   1.506       .  S
C1767      H1771   1.111       .  S
C1767      H1772   1.110       .  S
C1767      H1773   1.109       .  S
C1770      H1774   1.111       .  S
C1770      H1775   1.106       .  S
C1770      H1776   1.110       .  S
C1777      C1778   1.405   1_556  A
C1777      C1782   1.408       .  A
C1777      H1784   1.084       .  S
C1778      C1779   1.419       .  A
C1779      C1786   1.513       .  S
C1779      C1780   1.399       .  A
C1780      C1781   1.412   1_554  A
C1780      H1785   1.079       .  S
C1781      C1782   1.425       .  A
C1782      C1783   1.509       .  S
C1783      H1787   1.111       .  S
C1783      H1788   1.109       .  S
C1783      H1789   1.105       .  S
C1786      H1790   1.110       .  S
C1786      H1791   1.107       .  S
C1786      H1792   1.111       .  S
C1793      C1794   1.398   1_556  A
C1793      C1798   1.402       .  A
C1793      H1800   1.085       .  S
C1794      C1795   1.415       .  A
C1795      C1802   1.502       .  S
C1795      C1796   1.406       .  A
C1796      C1797   1.400       .  A
C1796      H1801   1.084       .  S
C1797      C1798   1.417   1_554  A
C1798      C1799   1.509       .  S
C1799      H1803   1.111       .  S
C1799      H1804   1.109       .  S
C1799      H1805   1.109       .  S
C1802      H1806   1.110       .  S
C1802      H1807   1.109       .  S
C1802      H1808   1.111       .  S
C1809      C1810   1.400       .  A
C1809      C1814   1.398       .  A
C1809      H1816   1.085       .  S
C1810      C1811   1.415   1_554  A
C1811      C1818   1.511       .  S
C1811      C1812   1.399       .  A
C1812      C1813   1.409   1_556  A
C1812      H1817   1.075       .  S
C1813      C1814   1.427       .  A
C1814      C1815   1.513       .  S
C1815      H1819   1.111       .  S
C1815      H1820   1.111       .  S
C1815      H1821   1.102       .  S
C1818      H1822   1.109       .  S
C1818      H1823   1.110       .  S
C1818      H1824   1.111       .  S
C1825      C1826   1.405       .  A
C1825      C1830   1.411       .  A
C1825      H1832   1.079       .  S
C1826      C1827   1.413   1_554  A
C1827      C1834   1.510       .  S
C1827      C1828   1.390       .  A
C1828      C1829   1.404   1_556  A
C1828      H1833   1.085       .  S
C1829      C1830   1.414       .  A
C1830      C1831   1.505       .  S
C1831      H1835   1.111       .  S
C1831      H1836   1.108       .  S
C1831      H1837   1.110       .  S
C1834      H1838   1.109       .  S
C1834      H1839   1.107       .  S
C1834      H1840   1.110       .  S
C1841      C1842   1.415   1_565  A
C1841      C1846   1.394       .  A
C1841      H1848   1.082       .  S
C1842      C1843   1.422       .  A
C1843      C1850   1.507       .  S
C1843      C1844   1.405       .  A
C1844      C1845   1.401       .  A
C1844      H1849   1.084       .  S
C1845      C1846   1.401   1_545  A
C1846      C1847   1.506       .  S
C1847      H1851   1.111       .  S
C1847      H1852   1.103       .  S
C1847      H1853   1.110   1_565  S
C1850      H1854   1.105       .  S
C1850      H1855   1.110       .  S
C1850      H1856   1.111   1_545  S
C1857      C1858   1.395       .  A
C1857      C1862   1.400       .  A
C1857      H1864   1.086       .  S
C1858      C1859   1.404   1_545  A
C1859      C1866   1.508       .  S
C1859      C1860   1.406       .  A
C1860      C1861   1.420   1_565  A
C1860      H1865   1.076       .  S
C1861      C1862   1.427       .  A
C1862      C1863   1.508       .  S
C1863      H1867   1.111       .  S
C1863      H1868   1.110       .  S
C1863      H1869   1.099       .  S
C1866      H1870   1.110   1_565  S
C1866      H1871   1.110       .  S
C1866      H1872   1.111       .  S
C1873      C1874   1.406       .  A
C1873      C1878   1.395       .  A
C1873      H1880   1.085       .  S
C1874      C1875   1.410       .  A
C1875      C1882   1.506       .  S
C1875      C1876   1.405       .  A
C1876      C1877   1.404       .  A
C1876      H1881   1.084       .  S
C1877      C1878   1.406       .  A
C1878      C1879   1.509       .  S
C1879      H1883   1.111       .  S
C1879      H1884   1.110       .  S
C1879      H1885   1.110       .  S
C1882      H1886   1.111       .  S
C1882      H1887   1.108       .  S
C1882      H1888   1.111       .  S
C1889      C1890   1.399       .  A
C1889      C1894   1.406       .  A
C1889      H1896   1.085       .  S
C1890      C1891   1.408       .  A
C1891      C1898   1.507       .  S
C1891      C1892   1.401       .  A
C1892      C1893   1.405       .  A
C1892      H1897   1.084       .  S
C1893      C1894   1.421       .  A
C1894      C1895   1.508       .  S
C1895      H1899   1.111       .  S
C1895      H1900   1.108       .  S
C1895      H1901   1.104       .  S
C1898      H1902   1.111       .  S
C1898      H1903   1.110       .  S
C1898      H1904   1.111       .  S
C1905      C1906   1.401       .  A
C1905      C1910   1.411       .  A
C1905      H1912   1.084       .  S
C1906      C1907   1.410       .  A
C1907      C1914   1.509       .  S
C1907      C1908   1.406       .  A
C1908      C1909   1.403       .  A
C1908      H1913   1.071       .  S
C1909      C1910   1.420       .  A
C1910      C1911   1.507       .  S
C1911      H1915   1.111       .  S
C1911      H1916   1.108       .  S
C1911      H1917   1.110       .  S
C1914      H1918   1.110       .  S
C1914      H1919   1.111       .  S
C1914      H1920   1.111       .  S
C1921      C1922   1.409       .  A
C1921      C1926   1.396       .  A
C1921      H1928   1.071       .  S
C1922      C1923   1.432       .  A
C1923      C1930   1.514       .  S
C1923      C1924   1.408       .  A
C1924      C1925   1.398       .  A
C1924      H1929   1.084       .  S
C1925      C1926   1.412       .  A
C1926      C1927   1.510       .  S
C1927      H1931   1.111       .  S
C1927      H1932   1.109       .  S
C1927      H1933   1.109       .  S
C1930      H1934   1.106       .  S
C1930      H1935   1.106       .  S
C1930      H1936   1.111       .  S
C1937      C1938   1.410       .  A
C1937      C1942   1.404       .  A
C1937      H1944   1.078       .  S
C1938      C1939   1.432       .  A
C1939      C1946   1.511       .  S
C1939      C1940   1.404       .  A
C1940      C1941   1.397       .  A
C1940      H1945   1.085       .  S
C1941      C1942   1.411       .  A
C1942      C1943   1.506       .  S
C1943      H1947   1.111       .  S
C1943      H1948   1.110       .  S
C1943      H1949   1.099       .  S
C1946      H1950   1.102       .  S
C1946      H1951   1.111       .  S
C1946      H1952   1.111       .  S
C1953      C1954   1.408       .  A
C1953      C1958   1.408       .  A
C1953      H1960   1.084       .  S
C1954      C1955   1.425       .  A
C1955      C1962   1.509       .  S
C1955      C1956   1.407       .  A
C1956      C1957   1.403       .  A
C1956      H1961   1.084       .  S
C1957      C1958   1.417       .  A
C1958      C1959   1.504       .  S
C1959      H1963   1.111       .  S
C1959      H1964   1.108   1_554  S
C1959      H1965   1.103   1_554  S
C1962      H1966   1.110       .  S
C1962      H1967   1.110       .  S
C1962      H1968   1.111       .  S
C1969      C1970   1.409       .  A
C1969      C1974   1.399       .  A
C1969      H1976   1.083       .  S
C1970      C1971   1.423       .  A
C1971      C1978   1.510       .  S
C1971      C1972   1.402       .  A
C1972      C1973   1.396       .  A
C1972      H1977   1.077       .  S
C1973      C1974   1.413       .  A
C1974      C1975   1.509       .  S
C1975      H1979   1.111       .  S
C1975      H1980   1.103       .  S
C1975      H1981   1.108       .  S
C1978      H1982   1.110       .  S
C1978      H1983   1.110       .  S
C1978      H1984   1.111       .  S
C1985      C1986   1.410       .  A
C1985      C1990   1.403       .  A
C1985      H1992   1.083       .  S
C1986      C1987   1.426       .  A
C1987      C1994   1.511       .  S
C1987      C1988   1.405       .  A
C1988      C1989   1.402       .  A
C1988      H1993   1.084       .  S
C1989      C1990   1.414       .  A
C1990      C1991   1.505       .  S
C1991      H1995   1.111       .  S
C1991      H1996   1.106       .  S
C1991      H1997   1.100       .  S
C1994      H1998   1.102       .  S
C1994      H1999   1.102       .  S
C1994      H2000   1.111       .  S
C2001      C2002   1.402       .  A
C2001      C2006   1.401       .  A
C2001      H2008   1.085       .  S
C2002      C2003   1.408       .  A
C2003      C2010   1.506       .  S
C2003      C2004   1.404       .  A
C2004      C2005   1.407       .  A
C2004      H2009   1.084       .  S
C2005      C2006   1.417       .  A
C2006      C2007   1.510       .  S
C2007      H2011   1.111       .  S
C2007      H2012   1.111       .  S
C2007      H2013   1.106       .  S
C2010      H2014   1.104       .  S
C2010      H2015   1.110       .  S
C2010      H2016   1.111       .  S
C2017      C2018   1.411       .  A
C2017      C2022   1.392       .  A
C2017      H2024   1.082       .  S
C2018      C2019   1.420       .  A
C2019      C2026   1.507       .  S
C2019      C2020   1.403       .  A
C2020      C2021   1.401       .  A
C2020      H2025   1.085       .  S
C2021      C2022   1.407       .  A
C2022      C2023   1.510       .  S
C2023      H2027   1.111       .  S
C2023      H2028   1.108       .  S
C2023      H2029   1.111       .  S
C2026      H2030   1.107       .  S
C2026      H2031   1.110       .  S
C2026      H2032   1.111       .  S
C2033      C2034   1.410       .  A
C2033      C2038   1.399       .  A
C2033      H2040   1.084       .  S
C2034      C2035   1.426       .  A
C2035      C2042   1.510       .  S
C2035      C2036   1.402       .  A
C2036      C2037   1.397       .  A
C2036      H2041   1.083       .  S
C2037      C2038   1.411       .  A
C2038      C2039   1.508       .  S
C2039      H2043   1.111       .  S
C2039      H2044   1.110       .  S
C2039      H2045   1.107       .  S
C2042      H2046   1.111       .  S
C2042      H2047   1.110       .  S
C2042      H2048   1.111       .  S
C2049      C2050   1.401       .  A
C2049      C2054   1.390       .  A
C2049      H2056   1.086       .  S
C2050      C2051   1.416       .  A
C2051      C2058   1.503       .  S
C2051      C2052   1.414       .  A
C2052      C2053   1.406       .  A
C2052      H2057   1.084       .  S
C2053      C2054   1.413       .  A
C2054      C2055   1.506       .  S
C2055      H2059   1.110       .  S
C2055      H2060   1.106       .  S
C2055      H2061   1.111       .  S
C2058      H2062   1.109       .  S
C2058      H2063   1.107       .  S
C2058      H2064   1.111       .  S
C2065      C2066   1.419       .  A
C2065      C2070   1.399       .  A
C2065      H2072   1.082       .  S
C2066      C2067   1.420   1_545  A
C2067      C2074   1.506       .  S
C2067      C2068   1.404       .  A
C2068      C2069   1.402   1_565  A
C2068      H2073   1.085       .  S
C2069      C2070   1.405       .  A
C2070      C2071   1.510       .  S
C2071      H2075   1.110       .  S
C2071      H2076   1.108       .  S
C2071      H2077   1.111       .  S
C2074      H2078   1.106       .  S
C2074      H2079   1.110       .  S
C2074      H2080   1.111       .  S
C2081      C2082   1.414   1_565  A
C2081      C2086   1.391       .  A
C2081      H2088   1.078       .  S
C2082      C2083   1.423       .  A
C2083      C2090   1.506       .  S
C2083      C2084   1.407       .  A
C2084      C2085   1.403       .  A
C2084      H2089   1.085       .  S
C2085      C2086   1.405   1_545  A
C2086      C2087   1.512       .  S
C2087      H2091   1.110       .  S
C2087      H2092   1.108       .  S
C2087      H2093   1.111       .  S
C2090      H2094   1.111       .  S
C2090      H2095   1.104       .  S
C2090      H2096   1.110       .  S
C2097      C2098   1.411       .  A
C2097      C2102   1.403       .  A
C2097      H2104   1.083       .  S
C2098      C2099   1.425       .  A
C2099      C2106   1.510       .  S
C2099      C2100   1.403       .  A
C2100      C2101   1.399       .  A
C2100      H2105   1.084       .  S
C2101      C2102   1.411       .  A
C2102      C2103   1.508       .  S
C2103      H2107   1.111       .  S
C2103      H2108   1.107       .  S
C2103      H2109   1.108       .  S
C2106      H2110   1.111       .  S
C2106      H2111   1.110       .  S
C2106      H2112   1.110       .  S
C2113      C2114   1.407       .  A
C2113      C2118   1.409       .  A
C2113      H2120   1.084       .  S
C2114      C2115   1.416       .  A
C2115      C2122   1.508       .  S
C2115      C2116   1.405       .  A
C2116      C2117   1.402       .  A
C2116      H2121   1.084       .  S
C2117      C2118   1.409       .  A
C2118      C2119   1.506       .  S
C2119      H2123   1.111       .  S
C2119      H2124   1.110       .  S
C2119      H2125   1.110       .  S
C2122      H2126   1.110       .  S
C2122      H2127   1.110       .  S
C2122      H2128   1.111       .  S
C2129      C2130   1.405       .  A
C2129      C2134   1.405       .  A
C2129      H2136   1.084       .  S
C2130      C2131   1.423       .  A
C2131      C2138   1.509       .  S
C2131      C2132   1.410       .  A
C2132      C2133   1.402       .  A
C2132      H2137   1.084       .  S
C2133      C2134   1.414       .  A
C2134      C2135   1.501       .  S
C2135      H2139   1.111       .  S
C2135      H2140   1.108       .  S
C2135      H2141   1.106       .  S
C2138      H2142   1.111       .  S
C2138      H2143   1.109       .  S
C2138      H2144   1.111       .  S
C2145      C2146   1.407       .  A
C2145      C2150   1.401       .  A
C2145      H2152   1.084       .  S
C2146      C2147   1.420       .  A
C2147      C2154   1.509       .  S
C2147      C2148   1.402       .  A
C2148      C2149   1.404       .  A
C2148      H2153   1.084       .  S
C2149      C2150   1.416       .  A
C2150      C2151   1.506       .  S
C2151      H2155   1.111       .  S
C2151      H2156   1.105       .  S
C2151      H2157   1.105       .  S
C2154      H2158   1.109       .  S
C2154      H2159   1.108       .  S
C2154      H2160   1.111       .  S
C2161      C2162   1.398       .  A
C2161      C2166   1.408       .  A
C2161      H2168   1.085       .  S
C2162      C2163   1.403       .  A
C2163      C2170   1.509       .  S
C2163      C2164   1.407       .  A
C2164      C2165   1.422       .  A
C2164      H2169   1.075       .  S
C2165      C2166   1.431       .  A
C2166      C2167   1.514       .  S
C2167      H2171   1.111       .  S
C2167      H2172   1.107       .  S
C2167      H2173   1.104       .  S
C2170      H2174   1.110       .  S
C2170      H2175   1.111       .  S
C2170      H2176   1.111       .  S
C2177      C2178   1.401       .  A
C2177      C2182   1.403       .  A
C2177      H2184   1.085       .  S
C2178      C2179   1.407       .  A
C2179      C2186   1.508       .  S
C2179      C2180   1.401       .  A
C2180      C2181   1.415       .  A
C2180      H2185   1.082       .  S
C2181      C2182   1.421       .  A
C2182      C2183   1.508       .  S
C2183      H2187   1.110       .  S
C2183      H2188   1.107       .  S
C2183      H2189   1.111       .  S
C2186      H2190   1.110       .  S
C2186      H2191   1.109       .  S
C2186      H2192   1.111       .  S
C2193      C2194   1.410       .  A
C2193      C2198   1.407       .  A
C2193      H2200   1.083       .  S
C2194      C2195   1.424       .  A
C2195      C2202   1.504       .  S
C2195      C2196   1.400       .  A
C2196      C2197   1.404       .  A
C2196      H2201   1.085       .  S
C2197      C2198   1.419       .  A
C2198      C2199   1.508       .  S
C2199      H2203   1.111       .  S
C2199      H2204   1.110       .  S
C2199      H2205   1.110       .  S
C2202      H2206   1.111       .  S
C2202      H2207   1.086   1_556  S
C2202      H2208   1.111       .  S
C2209      C2210   1.394       .  A
C2209      C2214   1.399       .  A
C2209      H2216   1.085       .  S
C2210      C2211   1.413       .  A
C2211      C2218   1.508       .  S
C2211      C2212   1.408       .  A
C2212      C2213   1.403       .  A
C2212      H2217   1.084       .  S
C2213      C2214   1.423       .  A
C2214      C2215   1.513       .  S
C2215      H2219   1.111       .  S
C2215      H2220   1.108       .  S
C2215      H2221   1.108       .  S
C2218      H2222   1.110       .  S
C2218      H2223   1.111   1_565  S
C2218      H2224   1.111       .  S
C2225      C2226   1.412       .  A
C2225      C2230   1.409       .  A
C2225      H2232   1.084       .  S
C2226      C2227   1.423       .  A
C2227      C2234   1.510       .  S
C2227      C2228   1.409       .  A
C2228      C2229   1.406       .  A
C2228      H2233   1.074       .  S
C2229      C2230   1.419       .  A
C2230      C2231   1.508       .  S
C2231      H2235   1.111       .  S
C2231      H2236   1.110       .  S
C2231      H2237   1.107       .  S
C2234      H2238   1.110       .  S
C2234      H2239   1.111   1_565  S
C2234      H2240   1.111       .  S
C2241      C2242   1.400       .  A
C2241      C2246   1.406       .  A
C2241      H2248   1.084       .  S
C2242      C2243   1.408       .  A
C2243      C2250   1.509       .  S
C2243      C2244   1.400       .  A
C2244      C2245   1.406       .  A
C2244      H2249   1.084       .  S
C2245      C2246   1.421       .  A
C2246      C2247   1.509       .  S
C2247      H2251   1.111       .  S
C2247      H2252   1.108       .  S
C2247      H2253   1.108       .  S
C2250      H2254   1.110       .  S
C2250      H2255   1.111       .  S
C2250      H2256   1.111       .  S
