geometry optimzed in LAMMPS
_audit_creation_date              2020-11-30 
_audit_creation_method            'lammps2cif' 
_symmetry_space_group_name_H-M    'P1' 
_symmetry_Int_Tables_number       1 
_symmetry_cell_setting            triclinic 
loop_ 
_symmetry_equiv_pos_as_xyz 
  x,y,z 
_cell_length_a                    42.94125662 
_cell_length_b                    43.050801329009616 
_cell_length_c                    43.063110017911534 
_cell_angle_alpha                 89.9891627427659 
_cell_angle_beta                  89.86799743959779 
_cell_angle_gamma                 90.0339755538784 
loop_ 
_atom_site_label 
_atom_site_type_symbol 
_atom_site_fract_x 
_atom_site_fract_y 
_atom_site_fract_z 
_atom_site_charge 
C1          C  0.78751423  0.76190186  0.74200196     0.80400
N2          N  0.78231309  0.74081119  0.76481738    -0.77900
C3          C  0.75750089  0.74379420  0.78416736     0.82800
N4          N  0.73817202  0.76848484  0.78091125    -0.77900
C5          C  0.74300138  0.78960012  0.75796237     0.82900
N6          N  0.76797653  0.78647435  0.73888125    -0.79600
C7          C  0.24220519  0.78133467  0.31071723     0.80400
N8          N  0.26680664  0.78461972  0.33026962    -0.77900
C9          C  0.28705406  0.80863645  0.32655488     0.82800
N10         N  0.28304089  0.82867156  0.30255298    -0.77900
C11         C  0.25860700  0.82541873  0.28283423     0.82900
N12         N  0.23849208  0.80155276  0.28687622    -0.79600
C13         C  0.78610003  0.75636068  0.33128954     0.80400
N14         N  0.80770869  0.77920949  0.33455122    -0.77900
C15         C  0.83165213  0.78183541  0.31404505     0.82800
N16         N  0.83344776  0.76191001  0.28971525    -0.77900
C17         C  0.81196991  0.73908035  0.28610082     0.82900
N18         N  0.78809754  0.73662378  0.30674897    -0.79600
C19         C  0.28189120  0.25719840  0.23907412     0.80400
N20         N  0.26221520  0.28186052  0.23694267    -0.77900
C21         C  0.23821074  0.28518536  0.25730874     0.82800
N22         N  0.23446210  0.26401124  0.28041998    -0.77900
C23         C  0.25391877  0.23923390  0.28264904     0.82900
N24         N  0.27775753  0.23616214  0.26213903    -0.79600
C25         C  0.81338760  0.32399427  0.28526798     0.80400
N26         N  0.83284441  0.29954991  0.28071473    -0.77900
C27         C  0.82886648  0.28001554  0.25619666     0.82800
N28         N  0.80478014  0.28484143  0.23651526    -0.77900
C29         C  0.78510963  0.30923872  0.24064197     0.82900
N30         N  0.78919013  0.32844590  0.26536718    -0.79600
C31         C  0.74154559  0.27872050  0.81156075     0.80400
N32         N  0.76559451  0.28164575  0.83173437    -0.77900
C33         C  0.78572700  0.30588545  0.82954700     0.82800
N34         N  0.78206835  0.32706281  0.80646303    -0.77900
C35         C  0.75792965  0.32452155  0.78622310     0.82900
N36         N  0.73795488  0.30009536  0.78864397    -0.79600
C37         C  0.31409608  0.82958686  0.78557461     0.80400
N38         N  0.33424709  0.80573091  0.78145225    -0.77900
C39         C  0.33046819  0.78536138  0.75774756     0.82800
N40         N  0.30584925  0.78859897  0.73830338    -0.77900
C41         C  0.28549137  0.81251648  0.74198485     0.82900
N42         N  0.28944590  0.83272738  0.76596557    -0.79600
O43         O  0.06988175  0.01646835  0.99173100    -0.88200
C44         C  0.98578775  0.02172033  0.95029758     0.87800
Mg45       Mg  0.08495485  0.97626181  0.01579633     1.58100
O46         O  0.99210694  0.06260134  0.02000784    -0.87900
O47         O  0.06350493  0.06572622  0.00199062    -0.75300
C48         C  0.96766723  0.93686067  0.10665313     0.92900
O49         O  0.03083740  0.96260514  0.95836507    -0.75100
O50         O  0.98958518  0.92364070  0.09180559    -0.82600
Mg51       Mg  0.05221839  0.00994599  0.94534387     1.58000
C52         C  0.92350361  0.05907186  0.08701102     0.92800
O53         O  0.07533439  0.05569271  0.92809136    -0.80900
H54         H  0.01182963  0.09620551  0.04523844    -0.06200
C55         C  0.95171961  0.97752988  0.02686524     0.87700
O56         O  0.07090016  0.99709676  0.06275161    -0.75400
O57         O  0.01060431  0.03305194  0.95960993    -0.88100
O58         O  0.92715564  0.06666313  0.05856163    -0.80900
C59         C  0.94360338  0.10030189  0.96441130     0.92900
C60         C  0.06830836  0.08436887  0.92555471     0.92800
Mg61       Mg  0.98026204  0.01006879  0.08265196     1.58000
O62         O  0.96048678  0.96520150  0.10231565    -0.80900
O63         O  0.00072345  0.05745552  0.06967524    -0.75100
O64         O  0.97233447  0.09662950  0.95815180    -0.80900
O65         O  0.09496716  0.98381911  0.92952164    -0.82700
O66         O  0.06108299  0.92384211  0.07193999    -0.81000
C67         C  0.00162539  0.07324829  0.04484573     0.87200
O68         O  0.02134216  0.98685571  0.06785810    -0.88100
O69         O  0.96091033  0.00268160  0.03736720    -0.88200
O70         O  0.96852544  0.95322612  0.02757537    -0.75300
Mg71       Mg  0.01672313  0.07820287  0.97996933     1.58000
O72         O  0.93004770  0.08575417  0.98629938    -0.82600
H73         H  0.10244510  0.04163953  0.01326887    -0.06400
O74         O  0.03974989  0.95602439  0.00813280    -0.87900
H75         H  0.01907908  0.92356549  0.98210795    -0.06200
H76         H  0.04580731  0.00788321  0.10123128    -0.06400
C77         C  0.02981391  0.94627091  0.98297653     0.87200
C78         C  0.07979770  0.04119050  0.00236351     0.87800
C79         C  0.04588217  0.99734819  0.07844416     0.87800
H80         H  0.92913604  0.97642772  0.01587361    -0.06400
O81         O  0.96107228  0.02200775  0.96667314    -0.75400
Mg82       Mg  0.01580113  0.94077780  0.04917287     1.58000
H83         H  0.98537055  0.01030863  0.92793810    -0.06400
C84         C  0.10988293  0.96252210  0.94346153     0.92800
O85         O  0.10201645  0.93415780  0.04178251    -0.82600
C86         C  0.08976096  0.92072858  0.06506143     0.92900
O87         O  0.04429539  0.09582227  0.93861707    -0.82600
Mg88       Mg  0.94630423  0.04367077  0.01332148     1.58200
O89         O  0.10546586  0.95603850  0.97190844    -0.80900
O90         O  0.93711118  0.03561167  0.09878469    -0.82600
C91         C  0.21437999  0.23371363  0.86533208     0.80400
N92         N  0.20541823  0.26054711  0.87885393    -0.77900
C93         C  0.22349056  0.28614126  0.87807143     0.82800
N94         N  0.25116683  0.28513760  0.86284849    -0.77900
C95         C  0.26047903  0.25841904  0.84844566     0.82900
N96         N  0.24191254  0.23258412  0.84960415    -0.79600
C97         C  0.85189065  0.19921001  0.23582181     0.80400
N98         N  0.84287917  0.22943049  0.23211504    -0.77900
C99         C  0.84402882  0.24936239  0.25688328     0.82800
N100        N  0.85424404  0.23893123  0.28478977    -0.77900
C101        C  0.86227473  0.20885607  0.28854124     0.82900
N102        N  0.86077985  0.18913255  0.26424094    -0.79600
C103        C  0.23797010  0.84895086  0.20305649     0.80400
N104        N  0.26625301  0.85821446  0.19276862    -0.77900
C105        C  0.29067768  0.86006850  0.21225975     0.82800
N106        N  0.28721805  0.85188835  0.24233828    -0.77900
C107        C  0.25929808  0.84140231  0.25285922     0.82900
N108        N  0.23441523  0.84004977  0.23318336    -0.79600
O109        O  0.03544225  0.51310451  0.61452608    -0.88200
C110        C  0.98820963  0.50368124  0.53290252     0.87800
Mg111      Mg  0.06182047  0.55430799  0.62449566     1.58100
O112        O  0.05594836  0.45803965  0.53766563    -0.87900
O113        O  0.04123688  0.46269518  0.60963238    -0.75300
C114        C  0.14527127  0.57897187  0.49798036     0.92900
O115        O  0.00285302  0.56603984  0.57332054    -0.75100
O116        O  0.13556907  0.59315509  0.52195066    -0.82600
Mg117      Mg  0.98880264  0.52074395  0.59840437     1.58000
C118        C  0.11726138  0.45714281  0.46367192     0.92800
O119        O  0.96936606  0.47798802  0.62488731    -0.80900
H120        H  0.08137142  0.42545069  0.55884904    -0.06200
C121        C  0.06446748  0.54083122  0.49251784     0.87700
O122        O  0.10749895  0.52987325  0.61049548    -0.75400
O123        O  0.99959563  0.49431732  0.55751249    -0.88100
O124        O  0.08944393  0.44974526  0.47085370    -0.80900
C125        C  0.99426140  0.42242502  0.49342805     0.92900
C126        C  0.96162949  0.45051571  0.61701039     0.92800
Mg127      Mg  0.12036006  0.50788280  0.51897609     1.58000
O128        O  0.13896323  0.55052391  0.49296666    -0.80900
O129        O  0.10641274  0.46249235  0.54363801    -0.75100
O130        O  0.98908692  0.42808063  0.52208361    -0.80900
O131        O  0.97622551  0.55031466  0.63991954    -0.82700
O132        O  0.12088230  0.60025272  0.59361894    -0.81000
C133        C  0.08108048  0.44753205  0.54689075     0.87200
O134        O  0.11022465  0.53444625  0.55988930    -0.88100
O135        O  0.07378185  0.51585844  0.50323362    -0.88200
O136        O  0.06838264  0.56632367  0.50687968    -0.75300
Mg137      Mg  0.01558493  0.44786109  0.56479324     1.58000
O138        O  0.01756840  0.43379438  0.47916575    -0.82600
H139        H  0.05805207  0.48755620  0.64603535    -0.06400
O140        O  0.05346349  0.56987904  0.57831298    -0.87900
H141        H  0.02805183  0.60271646  0.55742864    -0.06200
H142        H  0.14389238  0.51415291  0.58469638    -0.06400
C143        C  0.02831075  0.58065682  0.56943224     0.87200
C144        C  0.04521708  0.48796835  0.62446732     0.87800
C145        C  0.12163856  0.52587583  0.58481224     0.87800
H146        H  0.05200169  0.54088068  0.47073239    -0.06400
O147        O  0.00216891  0.50015212  0.50710996    -0.75400
Mg148      Mg  0.09396736  0.58076354  0.55156737     1.58000
H149        H  0.96619491  0.51584549  0.53344186    -0.06400
C150        C  0.99010012  0.57500817  0.64821763     0.92800
O151        O  0.09002982  0.59743179  0.63518768    -0.82600
C152        C  0.11377154  0.60824716  0.62119248     0.92900
O153        O  0.97326379  0.43699212  0.59350100    -0.82600
Mg154      Mg  0.04713386  0.47538107  0.49180299     1.58200
O155        O  0.01861436  0.58007297  0.64187018    -0.80900
O156        O  0.13127573  0.47995044  0.47608143    -0.82600
C157        C  0.83656558  0.34899460  0.36449399     0.80400
N158        N  0.83887768  0.33920198  0.33445169    -0.77900
C159        C  0.81328976  0.33975886  0.31566116     0.82800
N160        N  0.78577011  0.35047190  0.32701662    -0.77900
C161        C  0.78341748  0.35954344  0.35703515     0.82900
N162        N  0.80865290  0.35846763  0.37569107    -0.79600
C163        C  0.21035740  0.70510823  0.33407808     0.80400
N164        N  0.22335454  0.73381915  0.33605804    -0.77900
C165        C  0.22431255  0.75242361  0.31052952     0.82800
N166        N  0.21213417  0.74229236  0.28320803    -0.77900
C167        C  0.19982394  0.71342053  0.28113139     0.82900
N168        N  0.19925296  0.69489685  0.30650954    -0.79600
C169        C  0.86678026  0.73952712  0.71745408     0.80400
N170        N  0.87830732  0.76749353  0.70890233    -0.77900
C171        C  0.85985633  0.79287795  0.70854449     0.82800
N172        N  0.82963301  0.79049411  0.71724615    -0.77900
C173        C  0.81804690  0.76272653  0.72687782     0.82900
N174        N  0.83665634  0.73713681  0.72687354    -0.94800
O175        O  0.03396738  0.06279125  0.61014979    -0.88200
C176        C  0.07608872  0.07330136  0.52673958     0.87800
Mg177      Mg  0.01076749  0.02037015  0.62143506     1.58100
O178        O  0.00589469  0.11430047  0.53431531    -0.87900
O179        O  0.02372240  0.11255736  0.60519783    -0.75300
C180        C  0.92266363  0.98715783  0.49975395     0.92900
O181        O  0.06741883  0.01168072  0.56697353    -0.75100
O182        O  0.93454294  0.97429999  0.52348343    -0.82600
Mg183      Mg  0.08009627  0.05744849  0.59151820     1.58000
C184        C  0.94141706  0.11140907  0.46435933     0.92800
O185        O  0.09736904  0.10149248  0.61651811    -0.80900
H186        H  0.97928240  0.14537805  0.55644052    -0.06200
C187        C  0.00001667  0.03093508  0.48989750     0.87700
O188        O  0.96333767  0.04242170  0.60935610    -0.75400
O189        O  0.06557490  0.08282652  0.55173625    -0.88100
O190        O  0.96931421  0.11946766  0.47013595    -0.80900
C191        C  0.06446475  0.15108963  0.48628650     0.92900
C192        C  0.10173489  0.13009908  0.61016487     0.92800
Mg193      Mg  0.94342109  0.06050460  0.51876313     1.58000
O194        O  0.92655514  0.01594132  0.49392546    -0.80900
O195        O  0.95592886  0.10687347  0.54236996    -0.75100
O196        O  0.07037467  0.14693741  0.51499685    -0.80900
O197        O  0.09714199  0.02815197  0.63203004    -0.82700
O198        O  0.95325760  0.97073225  0.59420598    -0.81000
C199        C  0.98047849  0.12329381  0.54455080     0.87200
O200        O  0.95702852  0.03552083  0.55924264    -0.88100
O201        O  0.98979829  0.05522202  0.50130805    -0.88200
O202        O  0.99865060  0.00532047  0.50443433    -0.75300
Mg203      Mg  0.04659046  0.12807292  0.55930583     1.58000
O204        O  0.04066116  0.13928657  0.47334557    -0.82600
H205        H  0.01068173  0.08677484  0.64250792    -0.06400
O206        O  0.01742502  0.00510113  0.57478543    -0.87900
H207        H  0.04337883  0.97394082  0.55201980    -0.06200
H208        H  0.92465408  0.05581884  0.58584349    -0.06400
C209        C  0.04260134  0.99580517  0.56433788     0.87200
C210        C  0.02262106  0.08720257  0.62038099     0.87800
C211        C  0.94723079  0.04477153  0.58468358     0.87800
H212        H  0.01112210  0.03167758  0.46735457    -0.06400
O213        O  0.06046092  0.07479992  0.50178955    -0.75400
Mg214      Mg  0.97649346  0.99053004  0.55066261     1.58000
H215        H  0.09879844  0.06248340  0.52630801    -0.06400
C216        C  0.08484102  0.00296098  0.64146259     0.92800
O217        O  0.98588428  0.97602229  0.63396912    -0.82600
C218        C  0.96222120  0.96365635  0.62139878     0.92900
O219        O  0.08880601  0.14328812  0.58711751    -0.82600
Mg220      Mg  0.01369754  0.09669010  0.48841815     1.58200
O221        O  0.05618742  0.99685706  0.63695682    -0.80900
O222        O  0.92875985  0.08772333  0.47665566    -0.82600
C223        C  0.20926681  0.83657439  0.70917169     0.80400
N224        N  0.19832903  0.80870978  0.69958056    -0.77900
C225        C  0.21617340  0.78291607  0.70127171     0.82800
N226        N  0.24515005  0.78473466  0.71350246    -0.77900
C227        C  0.25612840  0.81234151  0.72437569     0.82900
N228        N  0.23817427  0.83842456  0.72204446    -0.79600
C229        C  0.23102580  0.20769792  0.35905897     0.80400
N230        N  0.22881603  0.22016386  0.33017196    -0.77900
C231        C  0.25415580  0.22071217  0.31117738     0.82800
N232        N  0.28153873  0.20840397  0.32105820    -0.77900
C233        C  0.28389839  0.19639382  0.35003504     0.82900
N234        N  0.25874382  0.19649828  0.36909816    -0.79600
C235        C  0.86361651  0.85801756  0.33694420     0.80400
N236        N  0.85105689  0.82914519  0.33908439    -0.77900
C237        C  0.85059365  0.81021932  0.31377261     0.82800
N238        N  0.86314287  0.82018898  0.28645874    -0.77900
C239        C  0.87537371  0.84915621  0.28423851     0.82900
N240        N  0.87511792  0.86805508  0.30938126    -0.79600
O241        O  0.48851938  0.50137923  0.05098141    -0.88200
C242        C  0.44745596  0.58552684  0.04171374     0.87800
Mg243      Mg  0.51487299  0.48813560  0.09026981     1.58100
O244        O  0.51784255  0.57589738  0.00093422    -0.87900
O245        O  0.49748246  0.50465325  0.00123488    -0.75300
C246        C  0.60569768  0.60829597  0.12467971     0.92900
O247        O  0.45871299  0.54350427  0.10394614    -0.75100
O248        O  0.59238943  0.58561671  0.13824131    -0.82600
Mg249      Mg  0.44281583  0.52002622  0.05867069     1.58000
C250        C  0.58455732  0.64563901  0.00134976     0.92800
O251        O  0.42263990  0.49567387  0.01453004    -0.80900
H252        H  0.54338647  0.55431944  0.96858756    -0.06200
C253        C  0.52513509  0.61974402  0.08420164     0.87700
O254        O  0.56041067  0.50198858  0.06619522    -0.75400
O255        O  0.45692562  0.55999433  0.03247868    -0.88100
O256        O  0.55641398  0.64039123  0.99352672    -0.80900
C257        C  0.46176144  0.62309371  0.96149497     0.92900
C258        C  0.41964303  0.50209212  0.98569342     0.92800
Mg259      Mg  0.58146270  0.59173036  0.05246527     1.58000
O260        O  0.60071497  0.61479915  0.09629328    -0.80900
O261        O  0.56800656  0.56867667  0.00614018    -0.75100
O262        O  0.45499200  0.59487576  0.96700689    -0.80900
O263        O  0.42794680  0.47851274  0.08826013    -0.82700
O264        O  0.57423159  0.51317316  0.14114876    -0.81000
C265        C  0.54291036  0.56603385  0.99078740     0.87200
O266        O  0.56823516  0.55109070  0.07705718    -0.88100
O267        O  0.53538614  0.60970567  0.05926010    -0.88200
O268        O  0.52718944  0.60425257  0.10927791    -0.75300
Mg269      Mg  0.47658125  0.55135380  0.98738920     1.58000
O270        O  0.48440476  0.63683091  0.97460077    -0.82600
H271        H  0.50746144  0.46647674  0.02692121    -0.06400
O272        O  0.50862345  0.53363145  0.10964914    -0.87900
H273        H  0.48392701  0.55692593  0.14140317    -0.06200
H274        H  0.59902548  0.52577734  0.05310927    -0.06400
C275        C  0.48388467  0.54477754  0.11943186     0.87200
C276        C  0.49772015  0.48962058  0.02650865     0.87800
C277        C  0.57705451  0.52634982  0.06540973     0.87800
H278        H  0.51345560  0.64197863  0.08454837    -0.06400
O279        O  0.46404732  0.60994047  0.03974354    -0.75400
Mg280      Mg  0.55008391  0.55789891  0.12312896     1.58000
H281        H  0.42480204  0.58694758  0.05262659    -0.06400
C282        C  0.44290729  0.46401349  0.10926978     0.92800
O283        O  0.54369231  0.47258286  0.13093036    -0.82600
C284        C  0.56728600  0.48452441  0.14412623     0.92900
O285        O  0.43390595  0.52465538  0.97294455    -0.82600
Mg286      Mg  0.51123574  0.62258727  0.01752365     1.58200
O287        O  0.47184892  0.46829487  0.11392602    -0.80900
O288        O  0.59637467  0.63410735  0.02576616    -0.82600
C289        C  0.35801874  0.36729738  0.82844813     0.80400
N290        N  0.34707212  0.33776739  0.83153060    -0.77900
C291        C  0.34652213  0.31847466  0.80637731     0.82800
N292        N  0.35719588  0.32879222  0.77845773    -0.77900
C293        C  0.36755076  0.35833245  0.77543029     0.82900
N294        N  0.36751554  0.37748699  0.80026163    -0.79600
C295        C  0.70730934  0.33206518  0.21058199     0.80400
N296        N  0.69620376  0.30364706  0.20275171    -0.77900
C297        C  0.71433879  0.27808950  0.20467147     0.82800
N298        N  0.74386047  0.28076347  0.21511230    -0.77900
C299        C  0.75515879  0.30884287  0.22420062     0.82900
N300        N  0.73683086  0.33472140  0.22195617    -0.79600
C301        C  0.73419592  0.71605727  0.86200484     0.80400
N302        N  0.73182088  0.72704048  0.83248055    -0.77900
C303        C  0.75714281  0.72619296  0.81329223     0.82800
N304        N  0.78443355  0.71398893  0.82363408    -0.77900
C305        C  0.78685865  0.70361403  0.85318727     0.82900
N306        N  0.76187342  0.70510253  0.87227536    -0.79600
O307        O  0.04897852  0.57681047  0.06772218    -0.88200
C308        C  0.04083276  0.62010388  0.98342843     0.87800
Mg309      Mg  0.09020926  0.55255098  0.08140372     1.58100
O310        O  0.99961256  0.55035690  0.99033751    -0.87900
O311        O  0.99916930  0.56802470  0.06138686    -0.75300
C312        C  0.12599696  0.46300396  0.96231619     0.92900
O313        O  0.10204540  0.61048328  0.02770241    -0.75100
O314        O  0.13941886  0.47803881  0.98382617    -0.82600
Mg315      Mg  0.05511007  0.62321355  0.05016210     1.58000
C316        C  0.00208972  0.48315851  0.92390464     0.92800
O317        O  0.00960515  0.63999792  0.07397923    -0.80900
H318        H  0.96719803  0.52475499  0.01174615    -0.06200
C319        C  0.08446380  0.54430309  0.94909280     0.87700
O320        O  0.06869920  0.50586962  0.06787690    -0.75400
O321        O  0.03100189  0.60971756  0.00841551    -0.88100
O322        O  0.99439299  0.51159699  0.92717615    -0.80900
C323        C  0.96068246  0.60596611  0.94224502     0.92900
C324        C  0.98123205  0.64409627  0.06627735     0.92800
Mg325      Mg  0.05310578  0.48766246  0.97772268     1.58000
O326        O  0.09741676  0.46720167  0.95563060    -0.80900
O327        O  0.00617742  0.50091078  0.99980225    -0.75100
O328        O  0.96560769  0.61271329  0.97063572    -0.80900
O329        O  0.08229733  0.63851168  0.09299405    -0.82700
O330        O  0.14147231  0.49528210  0.05502743    -0.81000
C331        C  0.98982659  0.52544024  0.00070243     0.87200
O332        O  0.07744291  0.50161828  0.01807668    -0.88100
O333        O  0.05951312  0.53349018  0.95870010    -0.88200
O334        O  0.10938579  0.54284729  0.96493662    -0.75300
Mg335      Mg  0.98543468  0.59052662  0.01491184     1.58000
O336        O  0.97474802  0.58376552  0.92867649    -0.82600
H337        H  0.02328927  0.55472489  0.09962288    -0.06400
O338        O  0.10903007  0.56062261  0.03591885    -0.87900
H339        H  0.14086209  0.58701126  0.01452661    -0.06200
H340        H  0.05701608  0.46784047  0.04266539    -0.06400
C341        C  0.11842895  0.58592951  0.02592105     0.87200
C342        C  0.02395021  0.56632421  0.07736088     0.87800
C343        C  0.06764207  0.49061176  0.04272490     0.87800
H344        H  0.08488754  0.55611287  0.92693985    -0.06400
O345        O  0.03932434  0.60447623  0.95836408    -0.75400
Mg346      Mg  0.12340300  0.51995223  0.01108090     1.58000
H347        H  0.05167238  0.64277749  0.98303030    -0.06400
C348        C  0.10473810  0.62487768  0.10661790     0.92800
O349        O  0.13327874  0.52577259  0.09602231    -0.82600
C350        C  0.14564672  0.50198732  0.08349911     0.92900
O351        O  0.96968669  0.63232254  0.04182391    -0.82600
Mg352      Mg  0.01774672  0.55721386  0.94448213     1.58200
O353        O  0.11154647  0.59658319  0.10145436    -0.80900
O354        O  0.02654608  0.47197358  0.93606200    -0.82600
C355        C  0.83240724  0.71248253  0.20716443     0.80400
N356        N  0.83555080  0.72285671  0.23678487    -0.77900
C357        C  0.81055064  0.72245613  0.25638915     0.82800
N358        N  0.78265891  0.71133169  0.24626478    -0.77900
C359        C  0.77962080  0.70139247  0.21653984     0.82900
N360        N  0.80437323  0.70236342  0.19720310    -0.79600
C361        C  0.20977418  0.36353512  0.23626773     0.80400
N362        N  0.19977081  0.37368902  0.26430055    -0.77900
C363        C  0.19943751  0.35472077  0.28928030     0.82800
N364        N  0.21006518  0.32515492  0.28646617    -0.77900
C365        C  0.22122543  0.31485890  0.25861230     0.82900
N366        N  0.22092466  0.33411952  0.23342297    -0.79600
C367        C  0.86193189  0.32846464  0.86307693     0.80400
N368        N  0.83333671  0.33086159  0.84969063    -0.77900
C369        C  0.81460071  0.30528999  0.84778637     0.82800
N370        N  0.82453341  0.27762039  0.85942000    -0.77900
C371        C  0.85319352  0.27520362  0.87221253     0.82900
N372        N  0.87178530  0.30051334  0.87363162    -0.79600
O373        O  0.61318466  0.03142427  0.06128290    -0.88200
C374        C  0.52956265  0.07576581  0.06811871     0.87800
Mg375      Mg  0.62476274  0.00495747  0.02110080     1.58100
O376        O  0.53538076  0.00899628  0.11448075    -0.87900
O377        O  0.60682276  0.02536516  0.11157388    -0.75300
C378        C  0.49964980  0.91930402  0.99334402     0.92900
O379        O  0.57185298  0.06279540  0.00703692    -0.75100
O380        O  0.52310724  0.93062899  0.97936074    -0.82600
Mg381      Mg  0.59583056  0.07714012  0.05233398     1.58000
C382        C  0.46495547  0.94492323  0.11573318     0.92800
O383        O  0.62126614  0.09635115  0.09506765    -0.80900
H384        H  0.55682704  0.98454137  0.14762781    -0.06200
C385        C  0.49186624  0.99983236  0.03183875     0.87700
O386        O  0.61041681  0.96007798  0.04628507    -0.75400
O387        O  0.55450043  0.06527196  0.07788896    -0.88100
O388        O  0.47053239  0.97321591  0.12229536    -0.80900
C389        C  0.48793033  0.07023070  0.14687009     0.92900
C390        C  0.61342619  0.10402367  0.12251878     0.92800
Mg391      Mg  0.51940080  0.94401013  0.06495461     1.58000
O392        O  0.49435186  0.92466686  0.02194916    -0.80900
O393        O  0.54302874  0.95881142  0.11060759    -0.75100
O394        O  0.51651156  0.07620234  0.14112278    -0.80900
O395        O  0.63792965  0.09037436  0.02322873    -0.82700
O396        O  0.59474365  0.94623780  0.97422758    -0.81000
C397        C  0.54523614  0.98429539  0.12536837     0.87200
O398        O  0.56005065  0.95565266  0.03926793    -0.88100
O399        O  0.50203788  0.98992264  0.05679150    -0.88200
O400        O  0.50709706  0.99710888  0.00667842    -0.75300
Mg401      Mg  0.56100975  0.05024474  0.12457361     1.58000
O402        O  0.47502808  0.04527703  0.13783713    -0.82600
H403        H  0.64443201  0.00945453  0.08774523    -0.06400
O404        O  0.57852795  0.01251542  0.00435982    -0.87900
H405        H  0.55761692  0.03655989  0.97058956    -0.06200
H406        H  0.58487402  0.92355411  0.06185130    -0.06400
C407        C  0.56918431  0.03709745  0.99285377     0.87200
C408        C  0.62256730  0.02184765  0.08672727     0.87800
C409        C  0.58494453  0.94532346  0.04933366     0.87800
H410        H  0.46988398  0.01206409  0.03161787    -0.06400
O411        O  0.50401274  0.06124273  0.07175148    -0.75400
Mg412      Mg  0.55227731  0.97217492  0.99293977     1.58000
H413        H  0.52957468  0.09756527  0.05565581    -0.06400
C414        C  0.64874071  0.07642255  0.99950971     0.92800
O415        O  0.63677658  0.97618602  0.97935414    -0.82600
C416        C  0.62272419  0.95315914  0.96742345     0.92900
O417        O  0.58926935  0.09317033  0.13578315    -0.82600
Mg418      Mg  0.48950449  0.01610954  0.09674733     1.58200
O419        O  0.64350546  0.04771034  0.99456762    -0.80900
O420        O  0.47739976  0.93118065  0.09281042    -0.82600
C421        C  0.71253382  0.20103334  0.83405623     0.80400
N422        N  0.72492718  0.22999547  0.83594441    -0.77900
C423        C  0.72366827  0.24954877  0.81107180     0.82800
N424        N  0.70950923  0.24008503  0.78437335    -0.77900
C425        C  0.69727283  0.21102063  0.78246648     0.82900
N426        N  0.69921295  0.19167603  0.80721255    -0.79600
C427        C  0.36016585  0.23451090  0.21072656     0.80400
N428        N  0.33056213  0.23212923  0.22188015    -0.77900
C429        C  0.31158030  0.25758311  0.22202824     0.82800
N430        N  0.32228526  0.28510784  0.21076274    -0.77900
C431        C  0.35191402  0.28756588  0.20017026     0.82900
N432        N  0.37071698  0.26238666  0.20051928    -0.79600
C433        C  0.33999406  0.85766639  0.86264826     0.80400
N434        N  0.34089754  0.84539523  0.83353167    -0.77900
C435        C  0.31535291  0.84732851  0.81473883     0.82800
N436        N  0.28915646  0.86171365  0.82518660    -0.77900
C437        C  0.28828058  0.87371063  0.85427548     0.82900
N438        N  0.31353280  0.87129924  0.87283976    -0.79600
O439        O  0.51600681  0.46037808  0.53318622    -0.88200
C440        C  0.50849619  0.54493995  0.57483822     0.87800
Mg441      Mg  0.55641434  0.44715269  0.50699889     1.58100
O442        O  0.46122594  0.53540108  0.50880056    -0.87900
O443        O  0.46532933  0.46486174  0.52848021    -0.75300
C444        C  0.58068104  0.56944045  0.41646308     0.92900
O445        O  0.56992670  0.50328934  0.56190736    -0.75100
O446        O  0.59464430  0.54525102  0.42607355    -0.82600
Mg447      Mg  0.52469405  0.47947924  0.57818308     1.58000
C448        C  0.45840958  0.60345460  0.44252161     0.92800
O449        O  0.48183143  0.45476204  0.59896023    -0.80900
H450        H  0.42864900  0.51144200  0.48586719    -0.06200
C451        C  0.54397398  0.57893948  0.49592830     0.87700
O452        O  0.53135735  0.45904291  0.46131563    -0.75400
O453        O  0.49854656  0.51971401  0.56540962    -0.88100
O454        O  0.45246742  0.59878220  0.47111977    -0.80900
C455        C  0.42831784  0.58479636  0.56875703     0.92900
C456        C  0.45417712  0.46257708  0.60625767     0.92800
Mg457      Mg  0.50999735  0.54907353  0.44258524     1.58000
O458        O  0.55228801  0.57481791  0.42291676    -0.80900
O459        O  0.46517536  0.52488245  0.45905025    -0.75100
O460        O  0.43367643  0.55630776  0.57479271    -0.80900
O461        O  0.55347258  0.43810927  0.59270711    -0.82700
O462        O  0.60224277  0.47420078  0.44616237    -0.81000
C463        C  0.45056059  0.52378171  0.48475392     0.87200
O464        O  0.53681940  0.50917479  0.45499488    -0.88100
O465        O  0.51875560  0.56775100  0.48771059    -0.88200
O466        O  0.56944805  0.56429372  0.49256878    -0.75300
Mg467      Mg  0.45163314  0.51168738  0.55093822     1.58000
O468        O  0.43849552  0.59766467  0.54415885    -0.82600
H469        H  0.48979322  0.42713602  0.51402914    -0.06400
O470        O  0.57367574  0.49373287  0.51205617    -0.87900
H471        H  0.60645685  0.51714118  0.53527226    -0.06200
H472        H  0.51540371  0.48244554  0.42363216    -0.06400
C473        C  0.58447373  0.50490723  0.53621360     0.87200
C474        C  0.49054960  0.44970465  0.52500209     0.87800
C475        C  0.52760705  0.48368570  0.44552674     0.87800
H476        H  0.54425888  0.60147674  0.50698464    -0.06400
O477        O  0.50499775  0.56972586  0.55924830    -0.75400
Mg478      Mg  0.58340786  0.51810324  0.46980136     1.58000
H479        H  0.52118956  0.54578184  0.59647657    -0.06400
C480        C  0.57636231  0.42493527  0.57943701     0.92800
O481        O  0.59824927  0.43366067  0.47827026    -0.82600
C482        C  0.60934924  0.44659849  0.45411360     0.92900
O483        O  0.44080031  0.48614920  0.59473579    -0.82600
Mg484      Mg  0.47908399  0.58169877  0.51412242     1.58200
O485        O  0.58232063  0.42898371  0.55067139    -0.80900
O486        O  0.48106822  0.59049244  0.42868200    -0.82600
C487        C  0.70812297  0.73652760  0.36242293     0.80400
N488        N  0.73733113  0.73312867  0.35055000    -0.77900
C489        C  0.75699598  0.75794431  0.34924703     0.82800
N490        N  0.74736886  0.78597622  0.36010815    -0.77900
C491        C  0.71806938  0.78949158  0.37129395     0.82900
N492        N  0.69843873  0.76488648  0.37205700    -0.79600
C493        C  0.36222935  0.70875896  0.73485966     0.80400
N494        N  0.34980588  0.73773824  0.73253788    -0.77900
C495        C  0.34814993  0.75626389  0.75812997     0.82800
N496        N  0.35917195  0.74582096  0.78576486    -0.77900
C497        C  0.37088802  0.71676945  0.78821888     0.82900
N498        N  0.37205844  0.69822162  0.76286568    -0.79600
C499        C  0.73256516  0.35736578  0.71127067     0.80400
N500        N  0.76005681  0.36809610  0.70002271    -0.77900
C501        C  0.78599436  0.36777867  0.71789641     0.82800
N502        N  0.78467159  0.35559846  0.74693332    -0.77900
C503        C  0.75746403  0.34368486  0.75801946     0.82900
N504        N  0.73133879  0.34483871  0.74019872    -0.79600
O505        O  0.54580188  0.07927261  0.56473784    -0.88200
C506        C  0.54185157  0.12082221  0.48031712     0.87800
Mg507      Mg  0.58479367  0.05323654  0.57938557     1.58100
O508        O  0.50017105  0.05117324  0.48678915    -0.87900
O509        O  0.49635566  0.06988481  0.55816106    -0.75300
C510        C  0.62503780  0.96454280  0.45935792     0.92900
O511        O  0.60175468  0.11066203  0.52656070    -0.75100
O512        O  0.63797672  0.97779706  0.48237761    -0.82600
Mg513      Mg  0.55434317  0.12523016  0.54688756     1.58000
C514        C  0.50246259  0.98490946  0.41858540     0.92800
O515        O  0.50861977  0.14498206  0.56834182    -0.80900
H516        H  0.46657880  0.02593925  0.50683194    -0.06200
C517        C  0.58531897  0.04476381  0.44656599     0.87700
O518        O  0.56253077  0.00764147  0.56355188    -0.75400
O519        O  0.53102725  0.11107278  0.50516053    -0.88100
O520        O  0.49549172  0.01342740  0.42249334    -0.80900
C521        C  0.46202844  0.10723823  0.43866227     0.92900
C522        C  0.48009617  0.14809095  0.56061121     0.92800
Mg523      Mg  0.55214483  0.98826549  0.47350245     1.58000
O524        O  0.59673923  0.96940175  0.45222228    -0.80900
O525        O  0.50496221  0.00127039  0.49473028    -0.75100
O526        O  0.46684731  0.11355819  0.46706905    -0.80900
O527        O  0.58073768  0.14011491  0.59025295    -0.82700
O528        O  0.63700832  0.99487247  0.55517257    -0.81000
C529        C  0.48942429  0.02627535  0.49624346     0.87200
O530        O  0.57510962  0.00194174  0.51463284    -0.88100
O531        O  0.55989550  0.03400814  0.45502472    -0.88200
O532        O  0.60950983  0.04323002  0.46354193    -0.75300
Mg533      Mg  0.48515280  0.09165250  0.51112167     1.58000
O534        O  0.47612637  0.08530036  0.42476098    -0.82600
H535        H  0.51972491  0.05920414  0.59760046    -0.06400
O536        O  0.60669311  0.06064986  0.53499456    -0.87900
H537        H  0.64050242  0.08602515  0.51550201    -0.06200
H538        H  0.55150361  0.96956774  0.53815455    -0.06400
C539        C  0.61745368  0.08564540  0.52565836     0.87200
C540        C  0.52067886  0.06951894  0.57472369     0.87800
C541        C  0.56304551  0.99188307  0.53867870     0.87800
H542        H  0.58678636  0.05663906  0.42448368    -0.06400
O543        O  0.54075926  0.10493344  0.45541072    -0.75400
Mg544      Mg  0.62141861  0.01978214  0.51016179     1.58000
H545        H  0.55331390  0.14318264  0.47995603    -0.06400
C546        C  0.60094069  0.12519307  0.60588144     0.92800
O547        O  0.62521447  0.02485052  0.59581767    -0.82600
C548        C  0.63885652  0.00147299  0.58396666     0.92900
O549        O  0.46849160  0.13384331  0.53749542    -0.82600
Mg550      Mg  0.51875773  0.05833104  0.44083906     1.58200
O551        O  0.60605415  0.09633956  0.60174655    -0.80900
O552        O  0.52633310  0.97269405  0.43094300    -0.82600
C553        C  0.36499540  0.83304235  0.35334782     0.80400
N554        N  0.37583176  0.80587693  0.36481159    -0.77900
C555        C  0.35745503  0.78049462  0.36658950     0.82800
N556        N  0.32777240  0.78198067  0.35593305    -0.77900
C557        C  0.31669901  0.80897169  0.34357849     0.82900
N558        N  0.33540506  0.83461243  0.34236992    -0.79600
C559        C  0.32794211  0.21854759  0.69953526     0.80400
N560        N  0.29858742  0.21248546  0.68958936    -0.77900
C561        C  0.27407364  0.21438024  0.70936715     0.82800
N562        N  0.27878036  0.22271138  0.73930859    -0.77900
C563        C  0.30782583  0.22997542  0.74942092     0.82900
N564        N  0.33250971  0.22789911  0.72944622    -0.79600
C565        C  0.71419420  0.86757225  0.73650296     0.80400
N566        N  0.70529148  0.87825439  0.76476549    -0.77900
C567        C  0.70611390  0.85952658  0.78994559     0.82800
N568        N  0.71652882  0.83001621  0.78708609    -0.77900
C569        C  0.72661040  0.81936360  0.75911532     0.82900
N570        N  0.72535907  0.83815650  0.73368214    -0.79600
C571        C  0.31098252  0.24533010  0.77979678     0.80400
N572        N  0.33104683  0.26951470  0.78250236    -0.77900
C573        C  0.32976679  0.28873333  0.80748935     0.82800
N574        N  0.30783890  0.28387496  0.82972838    -0.77900
C575        C  0.28766728  0.25963266  0.82749744     0.82900
N576        N  0.28897739  0.24075008  0.80217582    -0.79600
C577        C  0.67783428  0.94110217  0.62549534     0.20500
C578        C  0.68763710  0.91067386  0.63246933    -0.39400
C579        C  0.69806759  0.90587187  0.66307939     0.19500
C580        C  0.69881013  0.92972532  0.68465238     0.22100
C581        C  0.68977326  0.96001917  0.67751186    -0.39900
C582        C  0.67904798  0.96465438  0.64734875     0.20900
N583        N  0.66436401  0.95138760  0.59921024    -0.33200
C584        C  0.65679147  0.98147975  0.60489098    -0.10700
C585        C  0.66571695  0.99049888  0.63454796    -0.29500
N586        N  0.70628406  0.91903607  0.71279887    -0.46100
C587        C  0.71027777  0.88806128  0.70954747    -0.05400
C588        C  0.70582011  0.87886518  0.67873442    -0.22800
H589        H  0.68579122  0.89188935  0.61587024     0.19000
H590        H  0.68945615  0.97830494  0.69476270     0.17800
H591        H  0.66174996  0.01267406  0.64572912     0.14100
H592        H  0.70584599  0.85544031  0.66961624     0.14000
H593        H  0.65948592  0.93848757  0.57923701     0.32100
H594        H  0.70713230  0.93190563  0.73334937     0.34900
C595        C  0.37807545  0.20478290  0.63442641     0.20500
C596        C  0.38486093  0.19676755  0.60357196    -0.39400
C597        C  0.41580932  0.18840587  0.59748146     0.19500
C598        C  0.43849889  0.18854313  0.62026388     0.22100
C599        C  0.43188040  0.19756002  0.65101224    -0.39900
C600        C  0.40068004  0.20543672  0.65727055     0.20900
N601        N  0.34981953  0.21032385  0.64659506    -0.33200
C602        C  0.35414553  0.21454782  0.67749871    -0.10700
C603        C  0.38569522  0.21194109  0.68506292    -0.29500
N604        N  0.46513358  0.17603315  0.60939736    -0.46100
C605        C  0.45910129  0.16740955  0.57969673    -0.05400
C606        C  0.42873025  0.17522954  0.57133134    -0.22800
H607        H  0.36692105  0.19524949  0.58601638     0.19000
H608        H  0.44928821  0.19664573  0.66912065     0.17800
H609        H  0.39600245  0.21293947  0.70794949     0.14100
H610        H  0.41695946  0.16981868  0.54979091     0.14000
H611        H  0.32866473  0.21023076  0.63466694     0.32100
H612        H  0.48543326  0.17180688  0.62198491     0.34900
C613        C  0.40542261  0.90511721  0.36077903     0.20500
C614        C  0.40942339  0.93628728  0.36982479    -0.39400
C615        C  0.43978453  0.94459858  0.37894140     0.19500
C616        C  0.46409803  0.92346463  0.37883064     0.22100
C617        C  0.46040248  0.89292413  0.36865909    -0.39900
C618        C  0.43028866  0.88465273  0.35977799     0.20900
N619        N  0.37837541  0.88985293  0.35606647    -0.33200
C620        C  0.38649865  0.85957528  0.35260105    -0.10700
C621        C  0.41860319  0.85572960  0.35404570    -0.29500
N622        N  0.48962764  0.93560282  0.39189549    -0.46100
C623        C  0.48178830  0.96483265  0.40034165    -0.05400
C624        C  0.45097787  0.97150235  0.39238429    -0.22800
H625        H  0.39002558  0.95221901  0.37174919     0.19000
H626        H  0.47915011  0.87615520  0.36971194     0.17800
H627        H  0.43145000  0.83409505  0.35399796     0.14100
H628        H  0.43799741  0.99240651  0.39760759     0.14000
H629        H  0.35587705  0.89897856  0.35758033     0.32100
H630        H  0.51075400  0.92426374  0.39584941     0.34900
C631        C  0.67540477  0.85800912  0.38830651     0.20500
C632        C  0.64906130  0.87705991  0.38930574    -0.39400
C633        C  0.65113709  0.90273188  0.40906609     0.19500
C634        C  0.67742978  0.90907778  0.42653325     0.22100
C635        C  0.70431491  0.89063201  0.42457401    -0.39900
C636        C  0.70225918  0.86485092  0.40473959     0.20900
N637        N  0.67800176  0.83056740  0.37388882    -0.33200
C638        C  0.70678598  0.82000075  0.38090333    -0.10700
C639        C  0.72288167  0.84083453  0.39971496    -0.29500
N640        N  0.67209128  0.93283579  0.44612298    -0.46100
C641        C  0.64219643  0.94148943  0.44094263    -0.05400
C642        C  0.62858526  0.92351993  0.41773857    -0.22800
H643        H  0.62790247  0.87138646  0.37690796     0.19000
H644        H  0.72470154  0.89508809  0.43862142     0.17800
H645        H  0.74574147  0.83787428  0.40981961     0.14100
H646        H  0.60472791  0.92429237  0.40969442     0.14000
H647        H  0.66098731  0.81933223  0.36064489     0.32100
H648        H  0.68735770  0.94175625  0.46274094     0.34900
C649        C  0.37465700  0.67363753  0.66061711     0.20500
C650        C  0.38220103  0.67258867  0.62883254    -0.39400
C651        C  0.39114831  0.64334075  0.61731641     0.19500
C652        C  0.39189646  0.61715622  0.63597577     0.22100
C653        C  0.38377315  0.61808436  0.66748283    -0.39900
C654        C  0.37550408  0.64731864  0.67907793     0.20900
N655        N  0.36834450  0.69896142  0.67787344    -0.33200
C656        C  0.36567338  0.68858832  0.70750609    -0.10700
C657        C  0.36982210  0.65652739  0.70909948    -0.29500
N658        N  0.40374408  0.59282608  0.62047199    -0.46100
C659        C  0.41106482  0.60350031  0.59176924    -0.05400
C660        C  0.40324457  0.63488253  0.58877037    -0.22800
H661        H  0.38267840  0.69327268  0.61454780     0.19000
H662        H  0.38545028  0.59783925  0.68229425     0.17800
H663        H  0.37006214  0.64210314  0.72969438     0.14100
H664        H  0.40750853  0.64987661  0.56903428     0.14000
H665        H  0.36736494  0.72197074  0.67023224     0.32100
H666        H  0.40799099  0.57068479  0.62939008     0.34900
C667        C  0.37862821  0.70591845  0.39639877     0.20500
C668        C  0.37557853  0.67810971  0.41321373    -0.39400
C669        C  0.40232074  0.65934421  0.41432873     0.19500
C670        C  0.42964268  0.66726822  0.39907907     0.22100
C671        C  0.43263795  0.69490721  0.38223277    -0.39900
C672        C  0.40632058  0.71405108  0.38198336     0.20900
N673        N  0.35710477  0.72834811  0.39257357    -0.33200
C674        C  0.37159799  0.75096750  0.37607283    -0.10700
C675        C  0.40230284  0.74299430  0.36932622    -0.29500
N676        N  0.45235664  0.64690408  0.40550798    -0.46100
C677        C  0.43972679  0.62633882  0.42568836    -0.05400
C678        C  0.40849655  0.63308542  0.43157919    -0.22800
H679        H  0.35440225  0.67212786  0.42551638     0.19000
H680        H  0.45431769  0.70165903  0.37126272     0.17800
H681        H  0.41934247  0.75656284  0.35664738     0.14100
H682        H  0.39303705  0.62147593  0.44772732     0.14000
H683        H  0.33429711  0.72852557  0.40103632     0.32100
H684        H  0.47557613  0.64812778  0.39830315     0.34900
C685        C  0.67019857  0.66312596  0.37023453     0.20500
C686        C  0.66829285  0.63096910  0.37479918    -0.39400
C687        C  0.63860471  0.61941017  0.38176097     0.19500
C688        C  0.61263005  0.63837120  0.38368620     0.22100
C689        C  0.61437895  0.67051115  0.37844879    -0.39900
C690        C  0.64424506  0.68213903  0.37199616     0.20900
N691        N  0.69616126  0.67995727  0.36569911    -0.33200
C692        C  0.68675131  0.70994420  0.36486762    -0.10700
C693        C  0.65452693  0.71226103  0.36868254    -0.29500
N694        N  0.58795619  0.62229930  0.39424620    -0.46100
C695        C  0.59851692  0.59307359  0.39947994    -0.05400
C696        C  0.62982940  0.59027471  0.39149366    -0.22800
H697        H  0.68871770  0.61625262  0.37459373     0.19000
H698        H  0.59434183  0.68555936  0.38097011     0.17800
H699        H  0.64065387  0.73322220  0.36978335     0.14100
H700        H  0.64477702  0.57032365  0.39484079     0.14000
H701        H  0.71898143  0.67163855  0.36426917     0.32100
H702        H  0.56593338  0.63115900  0.39951160     0.34900
C703        C  0.67735788  0.36329989  0.64994180     0.20500
C704        C  0.66820392  0.36753235  0.61897815    -0.39400
C705        C  0.63820947  0.37955410  0.61465546     0.19500
C706        C  0.61859445  0.38610102  0.63936339     0.22100
C707        C  0.62713866  0.38022728  0.67029797    -0.39900
C708        C  0.65743621  0.36884674  0.67466257     0.20900
N709        N  0.70621087  0.35719570  0.66011416    -0.33200
C710        C  0.70476908  0.35878035  0.69149053    -0.10700
C711        C  0.67460906  0.36548079  0.70156398    -0.29500
N712        N  0.59334498  0.40161443  0.62955192    -0.46100
C713        C  0.59703321  0.40535406  0.59847877    -0.05400
C714        C  0.62449195  0.39136670  0.58822134    -0.22800
H715        H  0.68422190  0.36427532  0.59981167     0.19000
H716        H  0.61228436  0.38652966  0.68963606     0.17800
H717        H  0.66698403  0.36998016  0.72511319     0.14100
H718        H  0.63431025  0.39200967  0.56505625     0.14000
H719        H  0.72603981  0.35360433  0.64649442     0.32100
H720        H  0.57556225  0.41069888  0.64345524     0.34900
C721        C  0.64315028  0.14555940  0.67379941     0.20500
C722        C  0.65769628  0.13956741  0.70211299    -0.39400
C723        C  0.66653428  0.16568621  0.71909652     0.19500
C724        C  0.66202409  0.19573839  0.70858758     0.22100
C725        C  0.64733751  0.20180085  0.67998207    -0.39900
C726        C  0.63776418  0.17542542  0.66312450     0.20900
N727        N  0.63150917  0.12442303  0.65426226    -0.33200
C728        C  0.61805887  0.14064401  0.63099638    -0.10700
C729        C  0.62141545  0.17263422  0.63557875    -0.29500
N730        N  0.67276384  0.21636505  0.72958317    -0.46100
C731        C  0.68366994  0.19899044  0.75354123    -0.05400
C732        C  0.68002695  0.16741303  0.74776710    -0.22800
H733        H  0.66126161  0.11618294  0.71064131     0.19000
H734        H  0.64312054  0.22519392  0.67179884     0.17800
H735        H  0.61264558  0.19119764  0.62108888     0.14100
H736        H  0.68645141  0.14819402  0.76264659     0.14000
H737        H  0.63193134  0.10030082  0.65707992     0.32100
H738        H  0.67230519  0.24062386  0.72794746     0.34900
C739        C  0.45440398  0.87885516  0.93674104     0.20500
C740        C  0.44631139  0.86905856  0.90666066    -0.39400
C741        C  0.41469841  0.86199637  0.90206310     0.19500
C742        C  0.39307161  0.86423131  0.92585421     0.22100
C743        C  0.40142415  0.87245842  0.95622331    -0.39900
C744        C  0.43283851  0.87990105  0.96067373     0.20900
N745        N  0.48157679  0.89142412  0.94581205    -0.33200
C746        C  0.47717157  0.90059301  0.97563674    -0.10700
C747        C  0.44723010  0.89331405  0.98586636    -0.29500
N748        N  0.36408236  0.86115887  0.91479194    -0.46100
C749        C  0.36701011  0.85697671  0.88371261    -0.05400
C750        C  0.39831677  0.85673360  0.87490104    -0.22800
H751        H  0.46288252  0.86931253  0.88768636     0.19000
H752        H  0.38426108  0.87530920  0.97445377     0.17800
H753        H  0.43663612  0.89940532  0.00787400     0.14100
H754        H  0.40761168  0.85583240  0.85154048     0.14000
H755        H  0.50136560  0.89500214  0.93205917     0.32100
H756        H  0.34341914  0.86351229  0.92743288     0.34900
C757        C  0.66884523  0.92522886  0.90504180     0.20500
C758        C  0.69042623  0.92777806  0.88081191    -0.39400
C759        C  0.69047287  0.90326569  0.85954202     0.19500
C760        C  0.67108533  0.87770072  0.86258440     0.22100
C761        C  0.64943191  0.87513711  0.88690446    -0.39900
C762        C  0.64886528  0.90009378  0.90781724     0.20900
N763        N  0.66290321  0.94649726  0.92693018    -0.33200
C764        C  0.63863898  0.93513475  0.94346514    -0.10700
C765        C  0.62917476  0.90620453  0.93235214    -0.29500
N766        N  0.67506511  0.85806731  0.83866548    -0.46100
C767        C  0.69660729  0.87170776  0.82013495    -0.05400
C768        C  0.70675850  0.89986315  0.83228650    -0.22800
H769        H  0.70527770  0.94792623  0.87808700     0.19000
H770        H  0.63349529  0.85573271  0.88876285     0.17800
H771        H  0.60982893  0.89218063  0.94037633     0.14100
H772        H  0.72328708  0.91595041  0.82214986     0.14000
H773        H  0.67379428  0.96804709  0.92959886     0.32100
H774        H  0.66309064  0.83736217  0.83455596     0.34900
C775        C  0.68588961  0.10783723  0.93209693     0.20500
C776        C  0.69418278  0.10890994  0.90057238    -0.39400
C777        C  0.70286756  0.13821020  0.88917705     0.19500
C778        C  0.70385759  0.16436392  0.90787607     0.22100
C779        C  0.69612508  0.16314597  0.93954947    -0.39900
C780        C  0.68684168  0.13396257  0.95081499     0.20900
N781        N  0.67368108  0.08358582  0.94759486    -0.33200
C782        C  0.66641751  0.09442534  0.97627954    -0.10700
C783        C  0.67453387  0.12568427  0.97923197    -0.29500
N784        N  0.70967995  0.18993789  0.89085490    -0.46100
C785        C  0.71173204  0.18007179  0.86105087    -0.05400
C786        C  0.70800070  0.14791496  0.85913652    -0.22800
H787        H  0.69220220  0.08881765  0.88559442     0.19000
H788        H  0.69556901  0.18376493  0.95391767     0.17800
H789        H  0.67032321  0.14076218  0.99890621     0.14100
H790        H  0.70699167  0.13386513  0.83831387     0.14000
H791        H  0.66915123  0.06146569  0.93870828     0.32100
H792        H  0.71012731  0.21289509  0.89873919     0.34900
C793        C  0.45406211  0.13810185  0.18029059     0.20500
C794        C  0.45211460  0.16984427  0.18690314    -0.39400
C795        C  0.42306702  0.18035376  0.19723598     0.19500
C796        C  0.39775593  0.16079920  0.20118925     0.22100
C797        C  0.39988170  0.12873312  0.19511380    -0.39900
C798        C  0.42898084  0.11823610  0.18421256     0.20900
N799        N  0.47842816  0.12318228  0.16769008    -0.33200
C800        C  0.46891604  0.09355987  0.16319118    -0.10700
C801        C  0.43819833  0.08947528  0.17331351    -0.29500
N802        N  0.37202400  0.17729427  0.20838777    -0.46100
C803        C  0.38116037  0.20749354  0.20845763    -0.05400
C804        C  0.41286669  0.21014030  0.20198869    -0.22800
H805        H  0.47139718  0.18552867  0.18277192     0.19000
H806        H  0.37998042  0.11342060  0.19715949     0.17800
H807        H  0.42413718  0.06866514  0.17168382     0.14100
H808        H  0.42627526  0.23126326  0.19917938     0.14000
H809        H  0.49984387  0.13288235  0.16142135     0.32100
H810        H  0.34941087  0.16872951  0.21133061     0.34900
C811        C  0.94043648  0.44023268  0.88816813     0.20500
C812        C  0.90962453  0.43341177  0.87917493    -0.39400
C813        C  0.90332859  0.40192603  0.87273698     0.19500
C814        C  0.92616783  0.37936241  0.87505304     0.22100
C815        C  0.95691103  0.38626320  0.88306745    -0.39900
C816        C  0.96306624  0.41739766  0.88963198     0.20900
N817        N  0.95179059  0.46743771  0.89876406    -0.33200
C818        C  0.98168779  0.46150382  0.90709991    -0.10700
C819        C  0.98952539  0.43065314  0.90142117    -0.29500
N820        N  0.91416277  0.35100915  0.87090722    -0.46100
C821        C  0.88335496  0.35507044  0.86578107    -0.05400
C822        C  0.87559815  0.38663774  0.86635759    -0.22800
H823        H  0.89160196  0.45096860  0.87877112     0.19000
H824        H  0.97441585  0.36836545  0.88564900     0.17800
H825        H  0.01111540  0.41898138  0.90706162     0.14100
H826        H  0.85265134  0.39679463  0.86427668     0.14000
H827        H  0.93957829  0.48824386  0.90157627     0.32100
H828        H  0.92617079  0.32996085  0.87245405     0.34900
C829        C  0.94099536  0.68272242  0.12774445     0.20500
C830        C  0.93514928  0.69204668  0.15849622    -0.39400
C831        C  0.90458720  0.70184149  0.16479712     0.19500
C832        C  0.88190177  0.70244458  0.14198869     0.22100
C833        C  0.88795249  0.69409063  0.11118670    -0.39900
C834        C  0.91822658  0.68395652  0.10506018     0.20900
N835        N  0.96701943  0.66945816  0.11649750    -0.33200
C836        C  0.96049654  0.66204195  0.08660589    -0.10700
C837        C  0.93037278  0.67089723  0.07861763    -0.29500
N838        N  0.85394635  0.70835263  0.15432249    -0.46100
C839        C  0.85854877  0.71133812  0.18525882    -0.05400
C840        C  0.88997300  0.70808069  0.19276768    -0.22800
H841        H  0.95252778  0.68999313  0.17654142     0.19000
H842        H  0.86984071  0.69351723  0.09374527     0.17800
H843        H  0.91844314  0.66687101  0.05686201     0.14100
H844        H  0.90017911  0.70738711  0.21571261     0.14000
H845        H  0.98742165  0.66455402  0.12873494     0.32100
H846        H  0.83268606  0.70846768  0.14256324     0.34900
C847        C  0.18449619  0.46301736  0.14504051     0.20500
C848        C  0.19319093  0.45915210  0.17600278    -0.39400
C849        C  0.20078812  0.42890745  0.18479473     0.19500
C850        C  0.20044867  0.40413831  0.16429848     0.22100
C851        C  0.19256411  0.40818624  0.13278994    -0.39900
C852        C  0.18434655  0.43866534  0.12401581     0.20900
N853        N  0.17238318  0.48876014  0.13251504    -0.33200
C854        C  0.16407425  0.48107021  0.10326659    -0.10700
C855        C  0.17160646  0.45008326  0.09678674    -0.29500
N856        N  0.20547924  0.37723601  0.17959716    -0.46100
C857        C  0.20845825  0.38528377  0.20994162    -0.05400
C858        C  0.20597090  0.41726186  0.21387489    -0.22800
H859        H  0.19205580  0.47800209  0.19260088     0.19000
H860        H  0.19102409  0.38881356  0.11684684     0.17800
H861        H  0.16622142  0.43709498  0.07595545     0.14100
H862        H  0.20597716  0.43011240  0.23548760     0.14000
H863        H  0.16848654  0.50989137  0.14380183     0.32100
H864        H  0.20510820  0.35479776  0.17032062     0.34900
C865        C  0.85963435  0.66704548  0.86921569     0.20500
C866        C  0.88530419  0.64737603  0.86409977    -0.39400
C867        C  0.90371142  0.64102751  0.89033288     0.19500
C868        C  0.89724842  0.65390823  0.91909516     0.22100
C869        C  0.87184139  0.67358101  0.92413628    -0.39900
C870        C  0.85318071  0.67931714  0.89825012     0.20900
N871        N  0.83738311  0.67516385  0.84880552    -0.33200
C872        C  0.81650332  0.69206889  0.86534432    -0.10700
C873        C  0.82561804  0.69524466  0.89615315    -0.29500
N874        N  0.91728846  0.64368235  0.94054079    -0.46100
C875        C  0.93663663  0.62378831  0.92568969    -0.05400
C876        C  0.92897358  0.62145970  0.89421530    -0.22800
H877        H  0.88996355  0.63699109  0.84167840     0.19000
H878        H  0.86637937  0.68287560  0.94686015     0.17800
H879        H  0.81324323  0.70692268  0.91470991     0.14100
H880        H  0.93983020  0.60688076  0.87681821     0.14000
H881        H  0.83581908  0.66861704  0.82548039     0.32100
H882        H  0.91721337  0.64926190  0.96415413     0.34900
C883        C  0.64262710  0.16647837  0.16791008     0.20500
C884        C  0.64019788  0.19222592  0.18753766    -0.39400
C885        C  0.66689717  0.21064162  0.18983931     0.19500
C886        C  0.69433826  0.20363667  0.17439312     0.22100
C887        C  0.69690448  0.17754600  0.15491025    -0.39900
C888        C  0.66979037  0.15946779  0.15197771     0.20900
N889        N  0.61969543  0.14683851  0.16022092    -0.33200
C890        C  0.63204187  0.12738531  0.13885684    -0.10700
C891        C  0.66328378  0.13442178  0.13303947    -0.29500
N892        N  0.71562842  0.22612847  0.17897090    -0.46100
C893        C  0.70116501  0.24771538  0.19681515    -0.05400
C894        C  0.67092367  0.23878479  0.20421813    -0.22800
H895        H  0.61861176  0.19828783  0.19905693     0.19000
H896        H  0.71791885  0.17253469  0.14192063     0.17800
H897        H  0.67877061  0.12332825  0.11656771     0.14100
H898        H  0.65377276  0.25181198  0.21727713     0.14000
H899        H  0.59669289  0.14738674  0.16811938     0.32100
H900        H  0.73792328  0.22750987  0.16932480     0.34900
C901        C  0.38422152  0.40457714  0.70954573     0.20500
C902        C  0.38490601  0.43210501  0.69238365    -0.39400
C903        C  0.40546689  0.43235107  0.66725795     0.19500
C904        C  0.42414376  0.40717977  0.65985085     0.22100
C905        C  0.42262451  0.37913007  0.67640496    -0.39900
C906        C  0.40180882  0.37878743  0.70155353     0.20900
N907        N  0.36912173  0.39984526  0.73629481    -0.33200
C908        C  0.37682379  0.37080512  0.74533769    -0.10700
C909        C  0.39678246  0.35657192  0.72411885    -0.29500
N910        N  0.44383050  0.41450152  0.63670716    -0.46100
C911        C  0.43725406  0.44439041  0.62938745    -0.05400
C912        C  0.41328968  0.45619110  0.64765351    -0.22800
H913        H  0.37148841  0.45234557  0.69899359     0.19000
H914        H  0.43750441  0.35957655  0.67098251     0.17800
H915        H  0.40781829  0.33406769  0.72613107     0.14100
H916        H  0.40394790  0.47954618  0.64759145     0.14000
H917        H  0.35517504  0.41579494  0.74826610     0.32100
H918        H  0.46095297  0.40033315  0.62690552     0.34900
C919        C  0.70607090  0.66736004  0.19918941     0.20500
C920        C  0.68017410  0.64794089  0.20354419    -0.39400
C921        C  0.66141881  0.64334015  0.17730441     0.19500
C922        C  0.66776082  0.65742163  0.14906796     0.22100
C923        C  0.69336871  0.67712074  0.14479325    -0.39900
C924        C  0.71237964  0.68121903  0.17081976     0.20900
N925        N  0.72868242  0.67371966  0.21978901    -0.33200
C926        C  0.74961152  0.69129832  0.20411747    -0.10700
C927        C  0.74026725  0.69650326  0.17360963    -0.29500
N928        N  0.64783462  0.64765921  0.12722646    -0.46100
C929        C  0.62887169  0.62689211  0.14148341    -0.05400
C930        C  0.63642052  0.62374987  0.17281994    -0.22800
H931        H  0.67570446  0.63625284  0.22535736     0.19000
H932        H  0.69886790  0.68736947  0.12248195     0.17800
H933        H  0.75273049  0.70902431  0.15565457     0.14100
H934        H  0.62601767  0.60816752  0.18962444     0.14000
H935        H  0.73040435  0.66563956  0.24261399     0.32100
H936        H  0.64798184  0.65377676  0.10374652     0.34900
C937        C  0.68326747  0.70623431  0.92631564     0.20500
C938        C  0.67668934  0.69862441  0.95722743    -0.39400
C939        C  0.64654741  0.68783543  0.96305217     0.19500
C940        C  0.62435427  0.68519483  0.93993375     0.22100
C941        C  0.63069831  0.69375246  0.90899378    -0.39900
C942        C  0.66115648  0.70429390  0.90303444     0.20900
N943        N  0.71135399  0.71270278  0.91446592    -0.33200
C944        C  0.70747874  0.71482252  0.88335822    -0.10700
C945        C  0.67631520  0.71031509  0.87523115    -0.29500
N946        N  0.59858632  0.67116984  0.95100053    -0.46100
C947        C  0.60474500  0.66457666  0.98118755    -0.05400
C948        C  0.63429205  0.67494313  0.98957664    -0.22800
H949        H  0.69441022  0.69906575  0.97506348     0.19000
H950        H  0.61382671  0.69058421  0.89062993     0.17800
H951        H  0.66670768  0.70870495  0.85207391     0.14100
H952        H  0.64596322  0.67174552  0.01160621     0.14000
H953        H  0.73230872  0.71378708  0.92670538     0.32100
H954        H  0.57872846  0.66503043  0.93842735     0.34900
C955        C  0.39298719  0.40730905  0.14407121     0.20500
C956        C  0.36542206  0.39048381  0.14928761    -0.39400
C957        C  0.36873133  0.36290509  0.16639260     0.19500
C958        C  0.39739410  0.35274089  0.17702157     0.22100
C959        C  0.42476141  0.36979877  0.17237268    -0.39900
C960        C  0.42137179  0.39746038  0.15567240     0.20900
N961        N  0.39660052  0.43309706  0.12675906    -0.33200
C962        C  0.42747803  0.43962421  0.12757591    -0.10700
C963        C  0.44355274  0.41810858  0.14565621    -0.29500
N964        N  0.39480828  0.32488565  0.19067641    -0.46100
C965        C  0.36425983  0.31731369  0.18906608    -0.05400
C966        C  0.34710881  0.34054364  0.17437788    -0.22800
H967        H  0.34321895  0.39786823  0.14001921     0.19000
H968        H  0.44719859  0.36169052  0.18042480     0.17800
H969        H  0.46842268  0.41679257  0.14952679     0.14100
H970        H  0.32247392  0.34044775  0.16912843     0.14000
H971        H  0.37932245  0.44494673  0.11441548     0.32100
H972        H  0.41282150  0.31161279  0.20020520     0.34900
C973        C  0.64334792  0.38302638  0.19713964     0.20500
C974        C  0.61244243  0.38969496  0.18953977    -0.39400
C975        C  0.60622420  0.42053072  0.18176701     0.19500
C976        C  0.62895479  0.44333836  0.18182734     0.22100
C977        C  0.65998666  0.43677647  0.19034601    -0.39900
C978        C  0.66636999  0.40552666  0.19785471     0.20900
N979        N  0.65524637  0.35485229  0.20249275    -0.33200
C980        C  0.68620655  0.35887248  0.20679208    -0.10700
C981        C  0.69418324  0.39033657  0.20431974    -0.29500
N982        N  0.61752339  0.47002159  0.17006238    -0.46100
C983        C  0.58755882  0.46371457  0.16216671    -0.05400
C984        C  0.57965999  0.43323883  0.16955981    -0.22800
H985        H  0.59483122  0.37175148  0.18809852     0.19000
H986        H  0.67807806  0.45427353  0.18955339     0.17800
H987        H  0.71723622  0.40043552  0.20544665     0.14100
H988        H  0.55802234  0.42132339  0.16459938     0.14000
H989        H  0.64299334  0.33387678  0.20233804     0.32100
H990        H  0.62979520  0.49058641  0.16598411     0.34900
C991        C  0.42744030  0.67476282  0.90667993     0.20500
C992        C  0.42392903  0.70220025  0.88942718    -0.39400
C993        C  0.40468076  0.69990898  0.86323082     0.19500
C994        C  0.39031119  0.67231941  0.85489132     0.22100
C995        C  0.39284506  0.64532224  0.87275620    -0.39900
C996        C  0.41194387  0.64764649  0.89887615     0.20900
N997        N  0.44673247  0.66986942  0.93072162    -0.33200
C998        C  0.44327372  0.63946315  0.93812770    -0.10700
C999        C  0.42152121  0.62498499  0.91905564    -0.29500
N1000       N  0.37607436  0.67513775  0.82740133    -0.46100
C1001       C  0.38108941  0.70477252  0.81827633    -0.05400
C1002       C  0.39842571  0.72119571  0.84014763    -0.22800
H1003       H  0.43637650  0.72330581  0.89512277     0.19000
H1004       H  0.38197907  0.62367284  0.86596679     0.17800
H1005       H  0.41492980  0.60070507  0.91887020     0.14100
H1006       H  0.40680026  0.74485622  0.83847460     0.14000
H1007       H  0.46194032  0.68588723  0.94079181     0.32100
H1008       H  0.36419101  0.65777702  0.81523138     0.34900
C1009       C  0.36771156  0.40671420  0.90088252     0.20500
C1010       C  0.37503818  0.40989396  0.93254205    -0.39400
C1011       C  0.38187112  0.44023452  0.94256648     0.19500
C1012       C  0.38112114  0.46537639  0.92251280     0.22100
C1013       C  0.37309775  0.46233668  0.89116414    -0.39900
C1014       C  0.36680484  0.43207715  0.88113056     0.20900
N1015       N  0.36322861  0.38016112  0.88494873    -0.33200
C1016       C  0.35989602  0.38883876  0.85487559    -0.10700
C1017       C  0.36188402  0.42100712  0.85166202    -0.29500
N1018       N  0.39239798  0.49089294  0.93632039    -0.46100
C1019       C  0.40075894  0.48211627  0.96533637    -0.05400
C1020       C  0.39400535  0.45076367  0.97038118    -0.22800
H1021       H  0.37705425  0.39001697  0.94779256     0.19000
H1022       H  0.37369759  0.48183436  0.87528947     0.17800
H1023       H  0.36124395  0.43437958  0.83037274     0.14100
H1024       H  0.39995953  0.43693355  0.99049776     0.14000
H1025       H  0.36383762  0.35753735  0.89371841     0.32100
H1026       H  0.39604900  0.51252924  0.92592176     0.34900
C1027       C  0.35008698  0.17362789  0.39386997     0.20500
C1028       C  0.36768506  0.16953647  0.42078100    -0.39400
C1029       C  0.39538619  0.15300342  0.41701892     0.19500
C1030       C  0.40487550  0.14096297  0.38872403     0.22100
C1031       C  0.38764210  0.14591327  0.36143600    -0.39900
C1032       C  0.35990567  0.16290021  0.36513698     0.20900
N1033       N  0.32197186  0.18687751  0.39190418    -0.33200
C1034       C  0.31382822  0.18504485  0.36166418    -0.10700
C1035       C  0.33698646  0.17057294  0.34404315    -0.29500
N1036       N  0.43068343  0.12352128  0.39223777    -0.46100
C1037       C  0.43747855  0.12492288  0.42296830    -0.05400
C1038       C  0.41620828  0.14335612  0.43895547    -0.22800
H1039       H  0.35986001  0.17775028  0.44324133     0.19000
H1040       H  0.39473885  0.13643777  0.33924637     0.17800
H1041       H  0.33653290  0.16534542  0.31946604     0.14100
H1042       H  0.41512027  0.14766530  0.46370763     0.14000
H1043       H  0.30896211  0.19644172  0.41011935     0.32100
H1044       H  0.44233868  0.11087200  0.37512170     0.34900
C1045       C  0.88587476  0.95291518  0.43399982     0.20500
C1046       C  0.87771968  0.95103428  0.40259699    -0.39400
C1047       C  0.87093864  0.92120762  0.39159786     0.19500
C1048       C  0.87134447  0.89522434  0.41056339     0.22100
C1049       C  0.87860834  0.89724268  0.44228831    -0.39900
C1050       C  0.88624144  0.92705884  0.45314429     0.20900
N1051       N  0.89719533  0.97789139  0.44881582    -0.33200
C1052       C  0.90528335  0.96789998  0.47750086    -0.10700
C1053       C  0.89848236  0.93637724  0.48122735    -0.29500
N1054       N  0.86710042  0.86922884  0.39373738    -0.46100
C1055       C  0.86461294  0.87887556  0.36387618    -0.05400
C1056       C  0.86660342  0.91108864  0.36168816    -0.22800
H1057       H  0.87871086  0.97100152  0.38734319     0.19000
H1058       H  0.88026025  0.87686022  0.45691007     0.17800
H1059       H  0.90371895  0.92182960  0.50104029     0.14100
H1060       H  0.86664612  0.92506312  0.34078453     0.14000
H1061       H  0.90080160  0.99998026  0.43939254     0.32100
H1062       H  0.86761498  0.84635724  0.40177787     0.34900
C1063       C  0.17491403  0.91038844  0.69234944     0.20500
C1064       C  0.17410856  0.94175073  0.68324307    -0.39400
C1065       C  0.14474844  0.95324585  0.67453975     0.19500
C1066       C  0.11828478  0.93486747  0.67497102     0.22100
C1067       C  0.11903759  0.90364457  0.68412822    -0.39900
C1068       C  0.14831546  0.89219202  0.69269681     0.20900
N1069       N  0.20013796  0.89334495  0.69978816    -0.33200
C1070       C  0.18943110  0.86408384  0.70451838    -0.10700
C1071       C  0.15723390  0.86256784  0.70047116    -0.29500
N1072       N  0.09359262  0.95064025  0.66426131    -0.46100
C1073       C  0.10428199  0.97931324  0.65676944    -0.05400
C1074       C  0.13610682  0.98189580  0.66294767    -0.22800
H1075       H  0.19492641  0.95589390  0.68215615     0.19000
H1076       H  0.09848506  0.88907481  0.68372575     0.17800
H1077       H  0.14252249  0.84216775  0.70170343     0.14100
H1078       H  0.15107617  0.00164507  0.65851185     0.14000
H1079       H  0.22330137  0.90080683  0.70022433     0.32100
H1080       H  0.07101372  0.94209347  0.66136563     0.34900
C1081       C  0.19947848  0.18334922  0.69165104     0.20500
C1082       C  0.17598389  0.16076129  0.69264446    -0.39400
C1083       C  0.15580459  0.16027025  0.66712854     0.19500
C1084       C  0.15802060  0.18146625  0.64302452     0.22100
C1085       C  0.18094524  0.20471348  0.64249104    -0.39900
C1086       C  0.20195564  0.20438050  0.66739795     0.20900
N1087       N  0.22402862  0.18565522  0.71077775    -0.33200
C1088       C  0.24262815  0.20768055  0.69815162    -0.10700
C1089       C  0.22961506  0.22012530  0.67127185    -0.29500
N1090       N  0.13791216  0.17429229  0.62024298    -0.46100
C1091       C  0.12329727  0.14800108  0.62968217    -0.05400
C1092       C  0.13368425  0.13868396  0.65887780    -0.22800
H1093       H  0.17495562  0.14335825  0.71076314     0.19000
H1094       H  0.18366654  0.22035652  0.62298808     0.17800
H1095       H  0.23991969  0.23702444  0.65571995     0.14100
H1096       H  0.12710031  0.11800116  0.67159980     0.14000
H1097       H  0.22885252  0.17174673  0.73006508     0.32100
H1098       H  0.13545174  0.18561638  0.59892564     0.34900
C1099       C  0.13121552  0.18682167  0.45242392     0.20500
C1100       C  0.16280463  0.19489143  0.45108514    -0.39400
C1101       C  0.17483834  0.20015183  0.42129728     0.19500
C1102       C  0.15663503  0.19834184  0.39485170     0.22100
C1103       C  0.12483563  0.19084143  0.39624300    -0.39900
C1104       C  0.11292677  0.18488449  0.42604665     0.20900
N1105       N  0.11546075  0.17694013  0.47750185    -0.33200
C1106       C  0.08705547  0.16817711  0.46704684    -0.10700
C1107       C  0.08442661  0.17316038  0.43510888    -0.29500
N1108       N  0.17414941  0.20220651  0.36922638    -0.46100
C1109       C  0.20371251  0.20593416  0.37950803    -0.05400
C1110       C  0.20506563  0.20490457  0.41181684    -0.22800
H1111       H  0.17737712  0.19520823  0.47155834     0.19000
H1112       H  0.11085424  0.18812552  0.37553545     0.17800
H1113       H  0.06516183  0.16685738  0.42021033     0.14100
H1114       H  0.22558695  0.20620385  0.42631485     0.14000
H1115       H  0.12416178  0.17452281  0.49997699     0.32100
H1116       H  0.16671568  0.20095939  0.34615891     0.34900
C1117       C  0.90749296  0.85752001  0.69009886     0.20500
C1118       C  0.93532977  0.87432020  0.68830271    -0.39400
C1119       C  0.93480852  0.90011883  0.66862295     0.19500
C1120       C  0.90866781  0.90832915  0.65171337     0.22100
C1121       C  0.88051310  0.89198758  0.65416729    -0.39900
C1122       C  0.88090229  0.86635916  0.67420897     0.20900
N1123       N  0.90287905  0.83065811  0.70504226    -0.33200
C1124       C  0.87310526  0.82251899  0.69890275    -0.10700
C1125       C  0.85838009  0.84433724  0.68013757    -0.29500
N1126       N  0.91497927  0.93236928  0.63290189    -0.46100
C1127       C  0.94517848  0.93963597  0.63830225    -0.05400
C1128       C  0.95829880  0.92022011  0.66053283    -0.22800
H1129       H  0.95615486  0.86720954  0.70050600     0.19000
H1130       H  0.86015651  0.89816761  0.64074332     0.17800
H1131       H  0.83513735  0.84314900  0.67053762     0.14100
H1132       H  0.98214132  0.92002477  0.66864454     0.14000
H1133       H  0.91923247  0.81815238  0.71795666     0.32100
H1134       H  0.89985808  0.94293170  0.61713646     0.34900
C1135       C  0.15163566  0.64700961  0.17081028     0.20500
C1136       C  0.16903074  0.64151884  0.19760917    -0.39400
C1137       C  0.17603838  0.66772881  0.21529773     0.19500
C1138       C  0.16735904  0.69745540  0.20657834     0.22100
C1139       C  0.15028950  0.70304415  0.17928714    -0.39900
C1140       C  0.14231806  0.67650774  0.16197810     0.20900
N1141       N  0.14011748  0.62549900  0.15162036    -0.33200
C1142       C  0.12285868  0.64108917  0.13050873    -0.10700
C1143       C  0.12360942  0.67306221  0.13608358    -0.29500
N1144       N  0.17566743  0.71812091  0.22850442    -0.46100
C1145       C  0.18899993  0.70106669  0.25137911    -0.05400
C1146       C  0.18974155  0.66967585  0.24390247    -0.22800
H1147       H  0.17536349  0.61831345  0.20493470     0.19000
H1148       H  0.14257683  0.72608067  0.17281545     0.17800
H1149       H  0.11150109  0.69112525  0.12348180     0.14100
H1150       H  0.19839696  0.65071380  0.25795811     0.14000
H1151       H  0.14300959  0.60146306  0.15342358     0.32100
H1152       H  0.17148271  0.74207310  0.22848865     0.34900
C1153       C  0.66875048  0.39770846  0.42374028     0.20500
C1154       C  0.69155488  0.37449018  0.42489645    -0.39400
C1155       C  0.71367722  0.37530043  0.40097413     0.19500
C1156       C  0.71260356  0.39697857  0.37720346     0.22100
C1157       C  0.68969646  0.42007275  0.37596035    -0.39900
C1158       C  0.66804316  0.41974463  0.40030388     0.20900
N1159       N  0.64680479  0.40361024  0.44514496    -0.33200
C1160       C  0.63243373  0.42987081  0.43549363    -0.10700
C1161       C  0.64486168  0.44052085  0.40752479    -0.29500
N1162       N  0.73683377  0.39340449  0.35781161    -0.46100
C1163       C  0.75364518  0.36971228  0.36974452    -0.05400
C1164       C  0.74012135  0.35784457  0.39665158    -0.22800
H1165       H  0.69276379  0.35787972  0.44373001     0.19000
H1166       H  0.68948623  0.43771815  0.35805336     0.17800
H1167       H  0.63879579  0.46146503  0.39501162     0.14100
H1168       H  0.74881908  0.33937280  0.41131471     0.14000
H1169       H  0.64284611  0.39138869  0.46574845     0.32100
H1170       H  0.74222088  0.40686469  0.33834969     0.34900
C1171       C  0.14317146  0.67228414  0.66413247     0.20500
C1172       C  0.14062273  0.69898183  0.68235230    -0.39400
C1173       C  0.16753945  0.71699928  0.68456598     0.19500
C1174       C  0.19536413  0.70881347  0.67045372     0.22100
C1175       C  0.19800259  0.68183548  0.65218335    -0.39900
C1176       C  0.17061237  0.66409735  0.64926132     0.20900
N1177       N  0.12012468  0.65263473  0.65691146    -0.33200
C1178       C  0.13258784  0.63198768  0.63679460    -0.10700
C1179       C  0.16408806  0.63825362  0.63137323    -0.29500
N1180       N  0.21714315  0.73078158  0.67547876    -0.46100
C1181       C  0.20253891  0.75309462  0.69231847    -0.05400
C1182       C  0.17173137  0.74530436  0.69838803    -0.22800
H1183       H  0.11886888  0.70587267  0.69306242     0.19000
H1184       H  0.21935263  0.67576558  0.64023568     0.17800
H1185       H  0.17974771  0.62611607  0.61583332     0.14100
H1186       H  0.15450029  0.75895338  0.71068670     0.14000
H1187       H  0.09694978  0.65394371  0.66423596     0.32100
H1188       H  0.23997761  0.73117386  0.66707153     0.34900
C1189       C  0.92671703  0.68533246  0.70091471     0.20500
C1190       C  0.95601113  0.67629664  0.68993810    -0.39400
C1191       C  0.95889846  0.64492161  0.68223029     0.19500
C1192       C  0.93448751  0.62407834  0.68518190     0.22100
C1193       C  0.90526234  0.63304717  0.69672561    -0.39900
C1194       C  0.90234657  0.66453549  0.70450370     0.20900
N1195       N  0.91730653  0.71434957  0.70678878    -0.33200
C1196       C  0.88668245  0.71215857  0.71401797    -0.10700
C1197       C  0.87652541  0.68140650  0.71335004    -0.29500
N1198       N  0.94268624  0.59606205  0.67419061    -0.46100
C1199       C  0.97251305  0.59925787  0.66434249    -0.05400
C1200       C  0.98344465  0.62933147  0.66907827    -0.22800
H1201       H  0.97477075  0.69274788  0.68642653     0.19000
H1202       H  0.88591576  0.61699950  0.69835936     0.17800
H1203       H  0.85302430  0.67288620  0.71658983     0.14100
H1204       H  0.00586307  0.63883219  0.66250917     0.14000
H1205       H  0.93059105  0.73456288  0.70453271     0.32100
H1206       H  0.92865651  0.57626975  0.67276267     0.34900
C1207       C  0.14574492  0.40315901  0.40745679     0.20500
C1208       C  0.14777822  0.37497006  0.39108107    -0.39400
C1209       C  0.16647427  0.37549754  0.36425838     0.19500
C1210       C  0.18149791  0.40225822  0.35447167     0.22100
C1211       C  0.18015616  0.43009396  0.37123358    -0.39900
C1212       C  0.16189431  0.42942297  0.39814554     0.20900
N1213       N  0.12795836  0.40943154  0.43243187    -0.33200
C1214       C  0.13329553  0.43974098  0.43914149    -0.10700
C1215       C  0.15449606  0.45290048  0.41846913    -0.29500
N1216       N  0.19547992  0.39769026  0.32704767    -0.46100
C1217       C  0.18978791  0.36776128  0.31928870    -0.05400
C1218       C  0.17202504  0.35290510  0.34206732    -0.22800
H1219       H  0.13502718  0.35445871  0.39816544     0.19000
H1220       H  0.19173078  0.45102295  0.36336103     0.17800
H1221       H  0.16224084  0.47682324  0.41756114     0.14100
H1222       H  0.16302274  0.32942685  0.34161204     0.14000
H1223       H  0.11284548  0.39426025  0.44389973     0.32100
H1224       H  0.20775976  0.41421891  0.31398325     0.34900
C1225       C  0.19642482  0.64431833  0.38821122     0.20500
C1226       C  0.18770653  0.61434881  0.39738218    -0.39400
C1227       C  0.18088043  0.61074675  0.42894075     0.19500
C1228       C  0.18238671  0.63520770  0.44976888     0.22100
C1229       C  0.19183836  0.66510091  0.44069367    -0.39900
C1230       C  0.19887545  0.66867757  0.40906635     0.20900
N1231       N  0.20138106  0.65419018  0.35913506    -0.33200
C1232       C  0.20716205  0.68502750  0.36137602    -0.10700
C1233       C  0.20619382  0.69495421  0.39218730    -0.29500
N1234       N  0.17133949  0.62652592  0.47764839    -0.46100
C1235       C  0.16270388  0.59640745  0.47440088    -0.05400
C1236       C  0.16877421  0.58561077  0.44450631    -0.22800
H1237       H  0.18504709  0.59555817  0.38089657     0.19000
H1238       H  0.19228987  0.68442908  0.45675842     0.17800
H1239       H  0.20854365  0.71845635  0.40079349     0.14100
H1240       H  0.16293435  0.56313621  0.43485388     0.14000
H1241       H  0.19989443  0.64092507  0.33887761     0.32100
H1242       H  0.16847883  0.64062085  0.49720986     0.34900
C1243       C  0.85115111  0.38694664  0.67034311     0.20500
C1244       C  0.86823848  0.38859925  0.64268471    -0.39400
C1245       C  0.89558031  0.40619273  0.64396863     0.19500
C1246       C  0.90500839  0.42153482  0.67060580     0.22100
C1247       C  0.88837218  0.41904606  0.69866702    -0.39900
C1248       C  0.86114225  0.40093138  0.69752618     0.20900
N1249       N  0.82337612  0.37334306  0.67443937    -0.33200
C1250       C  0.81567898  0.37819685  0.70452817    -0.10700
C1251       C  0.83879719  0.39498599  0.71991659    -0.29500
N1252       N  0.93029819  0.43910526  0.66477078    -0.46100
C1253       C  0.93706085  0.43437069  0.63435772    -0.05400
C1254       C  0.91617150  0.41376349  0.62075625    -0.22800
H1255       H  0.86031515  0.37775040  0.62144321     0.19000
H1256       H  0.89556111  0.43105091  0.71953736     0.17800
H1257       H  0.83858723  0.40291356  0.74376369     0.14100
H1258       H  0.91522323  0.40663217  0.59666807     0.14000
H1259       H  0.81023943  0.36165680  0.65766695     0.32100
H1260       H  0.94187873  0.45375060  0.68026713     0.34900
C1261       C  0.94966860  0.38164121  0.43644587     0.20500
C1262       C  0.94169271  0.37218071  0.40625559    -0.39400
C1263       C  0.91095179  0.36186004  0.40228708     0.19500
C1264       C  0.88991374  0.36097232  0.42667741     0.22100
C1265       C  0.89819002  0.36937253  0.45706954    -0.39900
C1266       C  0.92883971  0.37989616  0.46096833     0.20900
N1267       N  0.97607994  0.39576301  0.44535559    -0.33200
C1268       C  0.97205669  0.40323515  0.47570450    -0.10700
C1269       C  0.94300325  0.39330233  0.48640522    -0.29500
N1270       N  0.86122884  0.35444946  0.41627465    -0.46100
C1271       C  0.86385720  0.35120507  0.38504058    -0.05400
C1272       C  0.89465997  0.35511895  0.37545355    -0.22800
H1273       H  0.95764551  0.37455771  0.38690349     0.19000
H1274       H  0.88141257  0.36963422  0.47586871     0.17800
H1275       H  0.93282474  0.39725871  0.50908133     0.14100
H1276       H  0.90338613  0.35574876  0.35186474     0.14000
H1277       H  0.99515521  0.40123082  0.43124151     0.32100
H1278       H  0.84078448  0.35390734  0.42945948     0.34900
C1279       C  0.40465965  0.89687946  0.14484109     0.20500
C1280       C  0.38016493  0.87565524  0.14242433    -0.39400
C1281       C  0.35978617  0.87490526  0.16771381     0.19500
C1282       C  0.36400988  0.89310857  0.19392099     0.22100
C1283       C  0.38877348  0.91413117  0.19648369    -0.39900
C1284       C  0.40864575  0.91562057  0.17069924     0.20900
N1285       N  0.42534007  0.90404440  0.12269775    -0.33200
C1286       C  0.44214592  0.92794620  0.13423932    -0.10700
C1287       C  0.43262481  0.93579707  0.16417221    -0.29500
N1288       N  0.34042000  0.88915832  0.21401399    -0.46100
C1289       C  0.32093597  0.86889930  0.19997693    -0.05400
C1290       C  0.33213014  0.85943434  0.17119130    -0.22800
H1291       H  0.37633072  0.86194855  0.12170449     0.19000
H1292       H  0.39142778  0.92929553  0.21634901     0.17800
H1293       H  0.44115799  0.95455483  0.17856894     0.14100
H1294       H  0.32099399  0.84408840  0.15467470     0.14000
H1295       H  0.42689281  0.89432982  0.10049002     0.32100
H1296       H  0.33705471  0.90050340  0.23519884     0.34900
C1297       C  0.87478943  0.16601002  0.35763741     0.20500
C1298       C  0.87260347  0.14037551  0.37751818    -0.39400
C1299       C  0.89277527  0.14077622  0.40295750     0.19500
C1300       C  0.91369171  0.16476478  0.40797668     0.22100
C1301       C  0.91499096  0.19100158  0.38877392    -0.39900
C1302       C  0.89460776  0.19073874  0.36347668     0.20900
N1303       N  0.86042897  0.16968243  0.33032413    -0.33200
C1304       C  0.87089326  0.19707606  0.31900212    -0.10700
C1305       C  0.89187344  0.21120917  0.33910234    -0.29500
N1306       N  0.93296328  0.15781141  0.43139319    -0.46100
C1307       C  0.92405856  0.12933540  0.44140369    -0.05400
C1308       C  0.89877273  0.11812526  0.42461351    -0.22800
H1309       H  0.85746574  0.12085992  0.37267754     0.19000
H1310       H  0.93168997  0.20948994  0.39237739     0.17800
H1311       H  0.90470161  0.23255629  0.33545875     0.14100
H1312       H  0.88784627  0.09553229  0.42648464     0.14000
H1313       H  0.84493658  0.15426796  0.31971354     0.32100
H1314       H  0.95172681  0.17106548  0.43927982     0.34900
C1315       C  0.15121654  0.39545503  0.92175119     0.20500
C1316       C  0.14718107  0.36674664  0.90719129    -0.39400
C1317       C  0.17438129  0.34976591  0.90187686     0.19500
C1318       C  0.20370419  0.36063609  0.90963412     0.22100
C1319       C  0.20776156  0.38951322  0.92444234    -0.39900
C1320       C  0.18026824  0.40635303  0.93045782     0.20900
N1321       N  0.12866627  0.41499782  0.93076726    -0.33200
C1322       C  0.14317500  0.43841651  0.94588981    -0.10700
C1323       C  0.17543861  0.43394954  0.94617463    -0.29500
N1324       N  0.22573026  0.33968403  0.90175218    -0.46100
C1325       C  0.20990625  0.31532925  0.88946902    -0.05400
C1326       C  0.17796688  0.32080961  0.88935278    -0.22800
H1327       H  0.12438635  0.35790606  0.90112175     0.19000
H1328       H  0.23047069  0.39791238  0.93136059     0.17800
H1329       H  0.19282554  0.44836400  0.95725059     0.14100
H1330       H  0.15973824  0.30554844  0.88106438     0.14000
H1331       H  0.10470528  0.41192320  0.92790020     0.32100
H1332       H  0.24978998  0.34155452  0.90500115     0.34900
C1333       C  0.17864587  0.92266542  0.92206396     0.20500
C1334       C  0.20749633  0.90891142  0.92760199    -0.39400
C1335       C  0.22489405  0.90183827  0.90118854     0.19500
C1336       C  0.21428687  0.90741366  0.87135314     0.22100
C1337       C  0.18526021  0.92139268  0.86578537    -0.39900
C1338       C  0.16793218  0.92902483  0.89241291     0.20900
N1339       N  0.15857772  0.93274935  0.94351490    -0.33200
C1340       C  0.13503482  0.94613672  0.92762073    -0.10700
C1341       C  0.13983648  0.94428081  0.89562160    -0.29500
N1342       N  0.23546539  0.89800610  0.85029963    -0.46100
C1343       C  0.25961287  0.88681635  0.86717430    -0.05400
C1344       C  0.25388677  0.88897192  0.89888231    -0.22800
H1345       H  0.21601506  0.90454007  0.95083935     0.19000
H1346       H  0.17703402  0.92637643  0.84257582     0.17800
H1347       H  0.12525861  0.95353578  0.87736432     0.14100
H1348       H  0.26884570  0.88172161  0.91774324     0.14000
H1349       H  0.16131069  0.93158976  0.96759861     0.32100
H1350       H  0.23372578  0.89928342  0.82611412     0.34900
C1351       C  0.15044486  0.87911269  0.10272909     0.20500
C1352       C  0.18086978  0.86843396  0.10674392    -0.39400
C1353       C  0.18836211  0.85870797  0.13676624     0.19500
C1354       C  0.16726507  0.85938600  0.16114359     0.22100
C1355       C  0.13629538  0.86890299  0.15678501    -0.39900
C1356       C  0.12877666  0.87881176  0.12661685     0.20900
N1357       N  0.13892248  0.89314445  0.07745234    -0.33200
C1358       C  0.10962831  0.90178516  0.08518912    -0.10700
C1359       C  0.10225030  0.89289581  0.11549032    -0.29500
N1360       N  0.18169568  0.85359684  0.18831217    -0.46100
C1361       C  0.21213264  0.84962863  0.18083811    -0.05400
C1362       C  0.21692167  0.85200370  0.14894614    -0.22800
H1363       H  0.19809921  0.86969358  0.08839028     0.19000
H1364       H  0.11992020  0.87054764  0.17585466     0.17800
H1365       H  0.08113284  0.89796952  0.12828108     0.14100
H1366       H  0.23893649  0.85178417  0.13663407     0.14000
H1367       H  0.15066842  0.89758868  0.05663965     0.32100
H1368       H  0.17196533  0.85457723  0.21050107     0.34900
C1369       C  0.91964838  0.16343061  0.91725178     0.20500
C1370       C  0.92456705  0.18952352  0.89861636    -0.39400
C1371       C  0.89850928  0.20820794  0.89371368     0.19500
C1372       C  0.86941860  0.20115708  0.90576003     0.22100
C1373       C  0.86440585  0.17472572  0.92433684    -0.39900
C1374       C  0.89082067  0.15626704  0.92986112     0.20900
N1375       N  0.94139458  0.14357139  0.92708934    -0.33200
C1376       C  0.92664674  0.12371324  0.94650774    -0.10700
C1377       C  0.89494971  0.13067411  0.94879835    -0.29500
N1378       N  0.84885145  0.22363696  0.89864209    -0.46100
C1379       C  0.86538918  0.24519194  0.88259015    -0.05400
C1380       C  0.89631520  0.23634007  0.87900830    -0.22800
H1381       H  0.94736230  0.19553603  0.88965360     0.19000
H1382       H  0.84198253  0.16960490  0.93466760     0.17800
H1383       H  0.87766732  0.11940479  0.96326450     0.14100
H1384       H  0.91488409  0.24921877  0.86783877     0.14000
H1385       H  0.96516165  0.14428061  0.92182085     0.32100
H1386       H  0.82549001  0.22486511  0.90527468     0.34900
C1387       C  0.13121847  0.12519702  0.88884960     0.20500
C1388       C  0.16228724  0.13067598  0.87957247    -0.39400
C1389       C  0.16997645  0.16184049  0.87308777     0.19500
C1390       C  0.14811532  0.18532577  0.87559356     0.22100
C1391       C  0.11714315  0.17980767  0.88405992    -0.39900
C1392       C  0.10961770  0.14896736  0.89071877     0.20900
N1393       N  0.11876253  0.09847860  0.89950004    -0.33200
C1394       C  0.08922986  0.10558357  0.90844408    -0.10700
C1395       C  0.08267976  0.13678624  0.90296313    -0.29500
N1396       N  0.16136966  0.21310167  0.87156225    -0.46100
C1397       C  0.19203452  0.20779806  0.86648086    -0.05400
C1398       C  0.19843730  0.17594747  0.86678402    -0.22800
H1399       H  0.17952451  0.11235586  0.87905281     0.19000
H1400       H  0.10052413  0.19849263  0.88695903     0.17800
H1401       H  0.06167596  0.14933180  0.90899239     0.14100
H1402       H  0.22098296  0.16486904  0.86498455     0.14000
H1403       H  0.13011485  0.07719372  0.90201524     0.32100
H1404       H  0.15029265  0.23463206  0.87350842     0.34900
C1405       C  0.92299129  0.91438137  0.17239274     0.20500
C1406       C  0.90527366  0.91998195  0.19903042    -0.39400
C1407       C  0.89940890  0.89412492  0.21765751     0.19500
C1408       C  0.90969840  0.86460413  0.21007209     0.22100
C1409       C  0.92739355  0.85891596  0.18307174    -0.39900
C1410       C  0.93394073  0.88514035  0.16463667     0.20900
N1411       N  0.93299175  0.93569477  0.15215468    -0.33200
C1412       C  0.95082039  0.92032120  0.13130496    -0.10700
C1413       C  0.95208422  0.88859081  0.13819851    -0.29500
N1414       N  0.90166595  0.84423966  0.23245383    -0.46100
C1415       C  0.88678708  0.86127904  0.25445736    -0.05400
C1416       C  0.88490618  0.89239229  0.24598845    -0.22800
H1417       H  0.89750945  0.94305837  0.20533664     0.19000
H1418       H  0.93620910  0.83605660  0.17740493     0.17800
H1419       H  0.96505455  0.87075692  0.12607524     0.14100
H1420       H  0.87475463  0.91131010  0.25911345     0.14000
H1421       H  0.92864423  0.95954199  0.15305056     0.32100
H1422       H  0.90680911  0.82052494  0.23321723     0.34900
C1423       C  0.88098136  0.11860404  0.12706113     0.20500
C1424       C  0.87011871  0.14897250  0.13280002    -0.39400
C1425       C  0.86182774  0.15560122  0.16376688     0.19500
C1426       C  0.86394513  0.13339983  0.18691154     0.22100
C1427       C  0.87361696  0.10288210  0.18100166    -0.39900
C1428       C  0.88225401  0.09645654  0.15032399     0.20900
N1429       N  0.89410462  0.10762312  0.10079105    -0.33200
C1430       C  0.90402326  0.07845558  0.10763411    -0.10700
C1431       C  0.89662542  0.07061831  0.13818288    -0.29500
N1432       N  0.85886369  0.14611409  0.21484540    -0.46100
C1433       C  0.85357329  0.17677301  0.20988426    -0.05400
C1434       C  0.85467767  0.18357687  0.17814885    -0.22800
H1435       H  0.87014531  0.16668155  0.11496269     0.19000
H1436       H  0.87634071  0.08597645  0.19941198     0.17800
H1437       H  0.90285455  0.04959952  0.15049203     0.14100
H1438       H  0.85311259  0.20622419  0.16736742     0.14000
H1439       H  0.89758968  0.11978199  0.08007281     0.32100
H1440       H  0.86058832  0.13479205  0.23624036     0.34900
loop_ 
_geom_bond_atom_site_label_1 
_geom_bond_atom_site_label_2 
_geom_bond_distance 
_geom_bond_site_symmetry_2 
_ccdc_geom_bond_type 
C1            N2   1.356       .  A
C1            N6   1.357       .  A
C1          C173   1.463       .  S
N2            C3   1.357       .  A
C3            N4   1.356       .  A
C3          C303   1.465       .  S
N4            C5   1.358       .  A
C5            N6   1.356       .  A
C5          C569   1.463       .  S
C7            N8   1.360       .  A
C7           N12   1.356       .  A
C7          C165   1.462       .  S
N8            C9   1.360       .  A
C9           N10   1.357       .  A
C9          C557   1.471       .  S
N10          C11   1.358       .  A
C11          N12   1.353       .  A
C11         C107   1.463       .  S
C13          N14   1.359       .  A
C13          N18   1.359       .  A
C13         C489   1.470       .  S
N14          C15   1.358       .  A
C15          N16   1.356       .  A
C15         C237   1.468       .  S
N16          C17   1.357       .  A
C17          N18   1.360       .  A
C17         C357   1.468       .  S
C19          N20   1.360       .  A
C19          N24   1.355       .  A
C19         C429   1.470       .  S
N20          C21   1.359       .  A
C21          N22   1.359       .  A
C21         C365   1.472       .  S
N22          C23   1.359       .  A
C23          N24   1.357       .  A
C23         C231   1.465       .  S
C25          N26   1.358       .  A
C25          N30   1.362       .  A
C25         C159   1.474       .  S
N26          C27   1.361       .  A
C27          N28   1.355       .  A
C27          C99   1.472       .  S
N28          C29   1.360       .  A
C29          N30   1.360       .  A
C29         C299   1.470       .  S
C31          N32   1.357       .  A
C31          N36   1.358       .  A
C31         C423   1.472       .  S
N32          C33   1.358       .  A
C33          N34   1.358       .  A
C33         C369   1.469       .  S
N34          C35   1.360       .  A
C35          N36   1.360       .  A
C35         C503   1.468       .  S
C37          N38   1.355       .  A
C37          N42   1.362       .  A
C37         C435   1.471       .  S
N38          C39   1.356       .  A
C39          N40   1.357       .  A
C39         C495   1.465       .  S
N40          C41   1.360       .  A
C41          N42   1.361       .  A
C41         C227   1.473       .  S
O43         Mg45   2.120   1_546  S
O43         Mg51   2.157       .  S
O43          C78   1.235   1_556  S
C44          O57   1.239   1_655  S
C44          O81   1.273       .  A
C44          H83   1.081       .  S
Mg45         O74   2.153       .  S
Mg45         O89   2.258   1_554  S
Mg45         O85   2.254       .  S
Mg45         O56   2.292       .  S
O46         Mg88   2.149       .  S
O46         Mg71   2.129   1_654  S
O46          C67   1.234   1_655  S
O47          C78   1.267       .  A
O47         Mg71   2.288   1_554  S
C48        C1412   1.467       .  S
C48          O50   1.271       .  A
C48          O62   1.272       .  A
O49          C77   1.272       .  A
O49         Mg51   2.303   1_565  S
O50         Mg82   2.274   1_655  S
Mg51         O57   2.135       .  S
Mg51         O65   2.257   1_545  S
Mg51         O53   2.326       .  S
C52        C1430   1.477       .  S
C52          O90   1.273       .  A
C52          O58   1.277       .  A
O53          C60   1.276       .  A
H54          C67   1.081       .  S
C55          O69   1.238   1_565  S
C55          O70   1.272       .  A
C55          H80   1.081       .  S
O56          C79   1.268       .  A
O57         Mg71   2.149       .  S
O58         Mg88   2.334       .  S
C59        C1376   1.464       .  S
C59          O72   1.271       .  A
C59          O64   1.272       .  A
C60        C1394   1.476       .  S
C60          O87   1.273       .  A
Mg61         O68   2.125   1_645  S
Mg61         O69   2.145       .  S
Mg61         O62   2.272   1_545  S
Mg61         O63   2.289   1_655  S
Mg61         O90   2.263       .  S
O63          C67   1.267       .  A
O64         Mg71   2.270   1_655  S
O65          C84   1.270       .  A
O66          C86   1.273       .  A
O66         Mg82   2.299       .  S
O68         Mg82   2.154       .  S
O68          C79   1.235       .  S
O69         Mg88   2.141       .  S
O70         Mg82   2.299   1_655  S
Mg71         O87   2.266       .  S
O72         Mg88   2.265   1_556  S
H73          C78   1.081       .  S
O74         Mg82   2.145       .  S
O74          C77   1.239   1_554  S
H75          C77   1.081       .  S
H76          C79   1.081   1_545  S
O81         Mg88   2.303   1_556  S
C84        C1340   1.458       .  S
C84          O89   1.270       .  A
O85          C86   1.270       .  A
C86        C1358   1.466       .  S
C91          N92   1.350       .  A
C91          N96   1.362       .  A
C91        C1397   1.472       .  S
N92          C93   1.348       .  A
C93          N94   1.357       .  A
C93        C1325   1.470       .  S
N94          C95   1.367       .  A
C95          N96   1.369       .  A
C95         C575   1.475       .  S
C97          N98   1.367       .  A
C97         N102   1.354       .  A
C97        C1433   1.478       .  S
N98          C99   1.370       .  A
C99         N100   1.357       .  A
N100        C101   1.350       .  A
C101        N102   1.349       .  A
C101       C1304   1.455       .  S
C103        N104   1.352       .  A
C103        N108   1.361       .  A
C103       C1361   1.467       .  S
N104        C105   1.347       .  A
C105        N106   1.350       .  A
C105       C1289   1.452       .  S
N106        C107   1.358       .  A
C107        N108   1.366       .  A
O109       Mg111   2.148       .  S
O109       Mg117   2.147   1_455  S
O109        C144   1.238       .  S
C110        O123   1.236       .  S
C110        O147   1.270   1_655  A
C110        H149   1.081       .  S
Mg111       O140   2.130       .  S
Mg111       O155   2.287       .  S
Mg111       O151   2.264       .  S
Mg111       O122   2.305       .  S
O112       Mg154   2.146       .  S
O112       Mg137   2.133       .  S
O112        C133   1.237       .  S
O113        C144   1.273       .  A
O113       Mg137   2.315       .  S
C114       C1235   1.466       .  S
C114        O116   1.269       .  A
C114        O128   1.273       .  A
O115        C143   1.272       .  A
O115       Mg117   2.308   1_455  S
O116       Mg148   2.256       .  S
Mg117       O123   2.147       .  S
Mg117       O131   2.260       .  S
Mg117       O119   2.319       .  S
C118       C1214   1.466       .  S
C118        O156   1.270       .  A
C118        O124   1.273       .  A
O119        C126   1.275       .  A
H120        C133   1.081       .  S
C121        O135   1.237       .  S
C121        O136   1.271       .  A
C121        H146   1.081       .  S
O122        C145   1.272       .  A
O123       Mg137   2.138   1_655  S
O124       Mg154   2.308       .  S
C125       C1268   1.475       .  S
C125        O138   1.271   1_655  A
C125        O130   1.277       .  A
C126       C1253   1.466       .  S
C126        O153   1.270       .  A
Mg127       O134   2.145       .  S
Mg127       O135   2.141       .  S
Mg127       O128   2.293       .  S
Mg127       O129   2.302       .  S
Mg127       O156   2.253       .  S
O129        C133   1.271       .  A
O130       Mg137   2.326   1_655  S
O131        C150   1.270       .  A
O132        C152   1.273       .  A
O132       Mg148   2.308       .  S
O134       Mg148   2.143       .  S
O134        C145   1.237       .  S
O135       Mg154   2.142       .  S
O136       Mg148   2.304       .  S
Mg137       O153   2.245   1_455  S
O138       Mg154   2.261       .  S
H139        C144   1.081       .  S
O140       Mg148   2.136       .  S
O140        C143   1.237       .  S
H141        C143   1.081       .  S
H142        C145   1.081       .  S
O147       Mg154   2.301       .  S
C150       C1199   1.463       .  S
C150        O155   1.273   1_655  A
O151        C152   1.271       .  A
C152       C1178   1.467       .  S
C157        N158   1.364       .  A
C157        N162   1.354       .  A
C157       C1271   1.473       .  S
N158        C159   1.366       .  A
C159        N160   1.359       .  A
N160        C161   1.354       .  A
C161        N162   1.351       .  A
C161       C1163   1.457       .  S
C163        N164   1.359       .  A
C163        N168   1.354       .  A
C163       C1232   1.465       .  S
N164        C165   1.361       .  A
C165        N166   1.360       .  A
N166        C167   1.353       .  A
C167        N168   1.353       .  A
C167       C1145   1.464       .  S
C169        N170   1.352       .  A
C169        N174   1.359       .  A
C169       C1196   1.463       .  S
N170        C171   1.350       .  A
C171        N172   1.354       .  A
C171       C1124   1.457       .  S
N172        C173   1.359       .  A
C173        N174   1.361       .  A
O175       Mg177   2.135       .  S
O175       Mg183   2.148       .  S
O175        C210   1.239       .  S
C176        O189   1.236       .  S
C176        O213   1.270       .  A
C176        H215   1.081       .  S
Mg177       O206   2.132       .  S
Mg177       O221   2.299   1_545  S
Mg177       O217   2.252   1_445  S
Mg177       O188   2.308   1_455  S
O178       Mg220   2.143       .  S
O178       Mg203   2.138       .  S
O178        C199   1.238   1_455  S
O179        C210   1.273       .  A
O179       Mg203   2.303       .  S
C180       C1052   1.472       .  S
C180        O182   1.270       .  A
C180        O194   1.275   1_565  A
O181        C209   1.271   1_545  A
O181       Mg183   2.302       .  S
O182       Mg214   2.261       .  S
Mg183       O189   2.127       .  S
Mg183       O197   2.275       .  S
Mg183       O185   2.304       .  S
C184       C1307   1.460       .  S
C184        O222   1.270       .  A
C184        O190   1.272       .  A
O185        C192   1.275       .  A
H186        C199   1.081       .  S
C187        O201   1.236   1_455  S
C187        O202   1.269   1_455  A
C187        H212   1.081       .  S
O188        C211   1.273       .  A
O189       Mg203   2.137       .  S
O190       Mg220   2.285   1_655  S
C191       C1106   1.471       .  S
C191        O204   1.271       .  A
C191        O196   1.275       .  A
C192       C1091   1.470       .  S
C192        O219   1.272       .  A
Mg193       O200   2.131       .  S
Mg193       O201   2.139       .  S
Mg193       O194   2.313       .  S
Mg193       O195   2.304       .  S
Mg193       O222   2.250       .  S
O195        C199   1.273       .  A
O196       Mg203   2.309       .  S
O197        C216   1.272       .  A
O198        C218   1.271       .  A
O198       Mg214   2.286       .  S
O200       Mg214   2.142   1_545  S
O200        C211   1.239       .  S
O201       Mg220   2.131   1_655  S
O202       Mg214   2.294   1_545  S
Mg203       O219   2.271       .  S
O204       Mg220   2.262       .  S
H205        C210   1.081       .  S
O206       Mg214   2.138   1_445  S
O206        C209   1.237   1_545  S
H207        C209   1.081       .  S
H208        C211   1.081       .  S
O213       Mg220   2.293       .  S
C216       C1073   1.473   1_545  S
C216        O221   1.273   1_545  A
O217        C218   1.269       .  A
C218       C1127   1.460       .  S
C223        N224   1.353       .  A
C223        N228   1.363       .  A
C223       C1070   1.473       .  S
N224        C225   1.352       .  A
C225        N226   1.355       .  A
C225       C1181   1.463       .  S
N226        C227   1.362       .  A
C227        N228   1.366       .  A
C229        N230   1.358       .  A
C229        N234   1.356       .  A
C229       C1109   1.467       .  S
N230        C231   1.360       .  A
C231        N232   1.359       .  A
N232        C233   1.355       .  A
C233        N234   1.355       .  A
C233       C1034   1.465       .  S
C235        N236   1.358       .  A
C235        N240   1.355       .  A
C235       C1055   1.468       .  S
N236        C237   1.361       .  A
C237        N238   1.362       .  A
N238        C239   1.356       .  A
C239        N240   1.354       .  A
C239       C1415   1.468       .  S
O241       Mg243   2.116       .  S
O241       Mg249   2.146       .  S
O241        C276   1.234       .  S
C242        O255   1.238       .  S
C242        O279   1.272       .  A
C242        H281   1.081       .  S
Mg243       O272   2.146       .  S
Mg243       O287   2.274       .  S
Mg243       O283   2.249       .  S
Mg243       O254   2.290       .  S
O244       Mg286   2.152       .  S
O244       Mg269   2.144   1_554  S
O244        C265   1.236   1_554  S
O245        C276   1.266       .  A
O245       Mg269   2.282   1_554  S
C246        C929   1.469       .  S
C246        O248   1.272       .  A
C246        O260   1.273       .  A
O247        C275   1.273       .  A
O247       Mg249   2.301       .  S
O248       Mg280   2.270       .  S
Mg249       O255   2.144       .  S
Mg249       O263   2.285       .  S
Mg249       O251   2.339       .  S
C250        C947   1.472   1_554  S
C250        O288   1.270       .  A
C250        O256   1.275   1_554  A
O251        C258   1.279   1_554  A
H252        C265   1.081       .  S
C253        O267   1.238       .  S
C253        O268   1.272       .  A
C253        H278   1.081       .  S
O254        C277   1.269       .  A
O255       Mg269   2.148   1_554  S
O256       Mg286   2.325   1_556  S
C257        C998   1.464       .  S
C257        O270   1.271       .  A
C257        O262   1.271       .  A
C258       C1019   1.473       .  S
C258        O285   1.272       .  A
Mg259       O266   2.121       .  S
Mg259       O267   2.144       .  S
Mg259       O260   2.289       .  S
Mg259       O261   2.303       .  S
Mg259       O288   2.248       .  S
O261        C265   1.271   1_554  A
O262       Mg269   2.268       .  S
O263        C282   1.274       .  A
O264        C284   1.275       .  A
O264       Mg280   2.322       .  S
O266       Mg280   2.150       .  S
O266        C277   1.237       .  S
O267       Mg286   2.150       .  S
O268       Mg280   2.304       .  S
Mg269       O285   2.251       .  S
O270       Mg286   2.265   1_556  S
H271        C276   1.081       .  S
O272       Mg280   2.145       .  S
O272        C275   1.239       .  S
H273        C275   1.081       .  S
H274        C277   1.081       .  S
O279       Mg286   2.304       .  S
C282        C962   1.469       .  S
C282        O287   1.273       .  A
O283        C284   1.271       .  A
C284        C983   1.472       .  S
C289        N290   1.362       .  A
C289        N294   1.353       .  A
C289       C1016   1.471       .  S
N290        C291   1.365       .  A
C291        N292   1.360       .  A
C291        C573   1.469       .  S
N292        C293   1.353       .  A
C293        N294   1.350       .  A
C293        C908   1.457       .  S
C295        N296   1.356       .  A
C295        N300   1.365       .  A
C295        C980   1.477       .  S
N296        C297   1.351       .  A
C297        N298   1.351       .  A
C297        C893   1.464       .  S
N298        C299   1.360       .  A
C299        N300   1.368       .  A
C301        N302   1.360       .  A
C301        N306   1.354       .  A
C301        C944   1.470       .  S
N302        C303   1.365       .  A
C303        N304   1.360       .  A
N304        C305   1.353       .  A
C305        N306   1.352       .  A
C305        C872   1.465       .  S
O307       Mg309   2.140       .  S
O307       Mg315   2.152       .  S
O307        C342   1.236       .  S
C308        O321   1.238   1_556  S
C308        O345   1.274       .  A
C308        H347   1.081       .  S
Mg309       O338   2.145       .  S
Mg309       O353   2.276       .  S
Mg309       O349   2.270       .  S
Mg309       O320   2.287       .  S
O310       Mg352   2.141   1_655  S
O310       Mg335   2.117   1_556  S
O310        C331   1.235   1_556  S
O311        C342   1.271   1_655  A
O311       Mg335   2.302       .  S
C312       C1322   1.471       .  S
C312        O314   1.269       .  A
C312        O326   1.274       .  A
O313        C341   1.272       .  A
O313       Mg315   2.300       .  S
O314       Mg346   2.259   1_556  S
Mg315       O321   2.156       .  S
Mg315       O329   2.282       .  S
Mg315       O317   2.321       .  S
C316        C818   1.471   1_455  S
C316        O354   1.270       .  A
C316        O322   1.276   1_455  A
O317        C324   1.276   1_455  A
H318        C331   1.081       .  S
C319        O333   1.238       .  S
C319        O334   1.272       .  A
C319        H344   1.081       .  S
O320        C343   1.268       .  A
O321       Mg335   2.141   1_455  S
O322       Mg352   2.328   1_655  S
C323        C875   1.472       .  S
C323        O336   1.272       .  A
C323        O328   1.275       .  A
C324        C836   1.467       .  S
C324        O351   1.270       .  A
Mg325       O332   2.117   1_556  S
Mg325       O333   2.153       .  S
Mg325       O326   2.301       .  S
Mg325       O327   2.298       .  S
Mg325       O354   2.233       .  S
O327        C331   1.269   1_456  A
O328       Mg335   2.298   1_556  S
O329        C348   1.273       .  A
O330        C350   1.273       .  A
O330       Mg346   2.306       .  S
O332       Mg346   2.146       .  S
O332        C343   1.235       .  S
O333       Mg352   2.154       .  S
O334       Mg346   2.300   1_556  S
Mg335       O351   2.244       .  S
O336       Mg352   2.278   1_655  S
H337        C342   1.081       .  S
O338       Mg346   2.142       .  S
O338        C341   1.238       .  S
H339        C341   1.081       .  S
H340        C343   1.081       .  S
O345       Mg352   2.314       .  S
C348       C1142   1.468       .  S
C348        O353   1.272       .  A
O349        C350   1.273       .  A
C350        C854   1.472       .  S
C355        N356   1.359       .  A
C355        N360   1.351       .  A
C355        C839   1.465       .  S
N356        C357   1.364       .  A
C357        N358   1.362       .  A
N358        C359   1.356       .  A
C359        N360   1.349       .  A
C359        C926   1.462       .  S
C361        N362   1.353       .  A
C361        N366   1.360       .  A
C361        C857   1.471       .  S
N362        C363   1.350       .  A
C363        N364   1.358       .  A
C363       C1217   1.468       .  S
N364        C365   1.365       .  A
C365        N366   1.365       .  A
C367        N368   1.362       .  A
C367        N372   1.355       .  A
C367        C821   1.473       .  S
N368        C369   1.366       .  A
C369        N370   1.361       .  A
N370        C371   1.354       .  A
C371        N372   1.352       .  A
C371       C1379   1.465       .  S
O373       Mg375   2.130       .  S
O373       Mg381   2.140       .  S
O373        C408   1.239       .  S
C374        O387   1.237       .  S
C374        O411   1.272       .  A
C374        H413   1.081       .  S
Mg375       O404   2.139       .  S
Mg375       O419   2.310   1_554  S
Mg375       O415   2.243   1_544  S
Mg375       O386   2.299   1_545  S
O376       Mg418   2.137       .  S
O376       Mg401   2.134       .  S
O376        C397   1.237   1_545  S
O377        C408   1.273       .  A
O377       Mg401   2.308       .  S
C378        C746   1.471       .  S
C378        O380   1.269       .  A
C378        O392   1.273   1_556  A
O379        C407   1.269   1_554  A
O379       Mg381   2.292       .  S
O380       Mg412   2.261       .  S
Mg381       O387   2.147       .  S
Mg381       O395   2.270       .  S
Mg381       O383   2.296       .  S
C382       C1286   1.457       .  S
C382        O420   1.268       .  A
C382        O388   1.273       .  A
O383        C390   1.272       .  A
H384        C397   1.081       .  S
C385        O399   1.237       .  S
C385        O400   1.270       .  A
C385        H410   1.081   1_565  S
O386        C409   1.271       .  A
O387       Mg401   2.131       .  S
O388       Mg418   2.297   1_565  S
C389        C800   1.472       .  S
C389        O402   1.270       .  A
C389        O394   1.277       .  A
C390        C890   1.465       .  S
C390        O417   1.272       .  A
Mg391       O398   2.124       .  S
Mg391       O399   2.142       .  S
Mg391       O392   2.300       .  S
Mg391       O393   2.304       .  S
Mg391       O420   2.233       .  S
O393        C397   1.272       .  A
O394       Mg401   2.325       .  S
O395        C414   1.272   1_554  A
O396        C416   1.271       .  A
O396       Mg412   2.284       .  S
O398       Mg412   2.145   1_554  S
O398        C409   1.237       .  S
O399       Mg418   2.126   1_565  S
O400       Mg412   2.294   1_554  S
Mg401       O417   2.263       .  S
O402       Mg418   2.256       .  S
H403        C408   1.081       .  S
O404       Mg412   2.128   1_544  S
O404        C407   1.236   1_554  S
H405        C407   1.081       .  S
H406        C409   1.081       .  S
O411       Mg418   2.306       .  S
C414        C782   1.474       .  S
C414        O419   1.274       .  A
O415        C416   1.270       .  A
C416        C764   1.460       .  S
C421        N422   1.358       .  A
C421        N426   1.352       .  A
C421        C785   1.472       .  S
N422        C423   1.363       .  A
C423        N424   1.364       .  A
N424        C425   1.359       .  A
C425        N426   1.355       .  A
C425        C731   1.471       .  S
C427        N428   1.362       .  A
C427        N432   1.355       .  A
C427        C803   1.475       .  S
N428        C429   1.366       .  A
C429        N430   1.360       .  A
N430        C431   1.355       .  A
C431        N432   1.352       .  A
C431        C965   1.465       .  S
C433        N434   1.361       .  A
C433        N438   1.352       .  A
C433        C749   1.475       .  S
N434        C435   1.367       .  A
C435        N436   1.360       .  A
N436        C437   1.355       .  A
C437        N438   1.353       .  A
C437       C1343   1.463       .  S
O439       Mg441   2.145       .  S
O439       Mg447   2.139       .  S
O439        C474   1.238       .  S
C440        O453   1.236       .  S
C440        O477   1.270       .  A
C440        H479   1.081       .  S
Mg441       O470   2.149       .  S
Mg441       O485   2.323       .  S
Mg441       O481   2.255       .  S
Mg441       O452   2.302       .  S
O442       Mg484   2.148       .  S
O442       Mg467   2.121       .  S
O442        C463   1.239       .  S
O443        C474   1.273       .  A
O443       Mg467   2.312       .  S
C444        C695   1.467       .  S
C444        O446   1.272       .  A
C444        O458   1.271       .  A
O445        C473   1.271       .  A
O445       Mg447   2.303       .  S
O446       Mg478   2.267       .  S
Mg447       O453   2.137       .  S
Mg447       O461   2.257       .  S
Mg447       O449   2.304       .  S
C448        C677   1.464       .  S
C448        O486   1.269       .  A
C448        O454   1.273       .  A
O449        C456   1.273       .  A
H450        C463   1.081       .  S
C451        O465   1.237       .  S
C451        O466   1.271       .  A
C451        H476   1.081       .  S
O452        C475   1.270       .  A
O453       Mg467   2.138       .  S
O454       Mg484   2.299       .  S
C455        C659   1.475       .  S
C455        O468   1.272       .  A
C455        O460   1.275       .  A
C456        C911   1.459       .  S
C456        O483   1.268       .  A
Mg457       O464   2.137       .  S
Mg457       O465   2.137       .  S
Mg457       O458   2.288       .  S
Mg457       O459   2.298       .  S
Mg457       O486   2.255       .  S
O459        C463   1.272       .  A
O460       Mg467   2.311       .  S
O461        C480   1.270       .  A
O462        C482   1.274       .  A
O462       Mg478   2.294       .  S
O464       Mg478   2.136       .  S
O464        C475   1.236       .  S
O465       Mg484   2.133       .  S
O466       Mg478   2.297       .  S
Mg467       O483   2.231       .  S
O468       Mg484   2.275       .  S
H469        C474   1.081       .  S
O470       Mg478   2.140       .  S
O470        C473   1.237       .  S
H471        C473   1.081       .  S
H472        C475   1.081       .  S
O477       Mg484   2.300       .  S
C480        C713   1.475       .  S
C480        O485   1.276       .  A
O481        C482   1.272       .  A
C482       C1160   1.463       .  S
C487        N488   1.361       .  A
C487        N492   1.355       .  A
C487        C692   1.470       .  S
N488        C489   1.362       .  A
C489        N490   1.359       .  A
N490        C491   1.355       .  A
C491        N492   1.354       .  A
C491        C638   1.460       .  S
C493        N494   1.361       .  A
C493        N498   1.357       .  A
C493        C656   1.471       .  S
N494        C495   1.362       .  A
C495        N496   1.358       .  A
N496        C497   1.353       .  A
C497        N498   1.354       .  A
C497       C1001   1.462       .  S
C499        N500   1.356       .  A
C499        N504   1.358       .  A
C499        C710   1.469       .  S
N500        C501   1.355       .  A
C501        N502   1.357       .  A
C501       C1250   1.467       .  S
N502        C503   1.361       .  A
C503        N504   1.362       .  A
O505       Mg507   2.113       .  S
O505       Mg513   2.153       .  S
O505        C540   1.234       .  S
C506        O519   1.239       .  S
C506        O543   1.273       .  A
C506        H545   1.081       .  S
Mg507       O536   2.152       .  S
Mg507       O551   2.282       .  S
Mg507       O547   2.239       .  S
Mg507       O518   2.288       .  S
O508       Mg550   2.154       .  S
O508       Mg533   2.133       .  S
O508        C529   1.235       .  S
O509        C540   1.266       .  A
O509       Mg533   2.284       .  S
C510        C641   1.468       .  S
C510        O512   1.273       .  A
C510        O524   1.272       .  A
O511        C539   1.271       .  A
O511       Mg513   2.302       .  S
O512       Mg544   2.281   1_565  S
Mg513       O519   2.147       .  S
Mg513       O527   2.279       .  S
Mg513       O515   2.329       .  S
C514        C623   1.468       .  S
C514        O552   1.270       .  A
C514        O520   1.275   1_565  A
O515        C522   1.277       .  A
H516        C529   1.081       .  S
C517        O531   1.240       .  S
C517        O532   1.273       .  A
C517        H542   1.081       .  S
O518        C541   1.268   1_545  A
O519       Mg533   2.154       .  S
O520       Mg550   2.315       .  S
C521       C1037   1.467       .  S
C521        O534   1.271       .  A
C521        O526   1.271       .  A
C522        C605   1.476       .  S
C522        O549   1.272       .  A
Mg523       O530   2.113   1_565  S
Mg523       O531   2.149   1_565  S
Mg523       O524   2.272       .  S
Mg523       O525   2.291   1_565  S
Mg523       O552   2.246       .  S
O525        C529   1.268       .  A
O526       Mg533   2.261       .  S
O527        C546   1.273       .  A
O528        C548   1.275   1_565  A
O528       Mg544   2.315   1_565  S
O530       Mg544   2.140       .  S
O530        C541   1.235   1_545  S
O531       Mg550   2.144       .  S
O532       Mg544   2.306       .  S
Mg533       O549   2.258       .  S
O534       Mg550   2.277       .  S
H535        C540   1.081       .  S
O536       Mg544   2.154       .  S
O536        C539   1.238       .  S
H537        C539   1.081       .  S
H538        C541   1.081       .  S
O543       Mg550   2.305       .  S
C546        C728   1.468       .  S
C546        O551   1.274       .  A
O547        C548   1.271       .  A
C548        C584   1.466   1_545  S
C553        N554   1.353       .  A
C553        N558   1.358       .  A
C553        C620   1.469       .  S
N554        C555   1.350       .  A
C555        N556   1.357       .  A
C555        C674   1.467       .  S
N556        C557   1.364       .  A
C557        N558   1.366       .  A
C559        N560   1.357       .  A
C559        N564   1.364       .  A
C559        C602   1.480       .  S
N560        C561   1.355       .  A
C561        N562   1.354       .  A
C561       C1088   1.464       .  S
N562        C563   1.358       .  A
C563        N564   1.367       .  A
C563        C571   1.472       .  S
C565        N566   1.355       .  A
C565        N570   1.360       .  A
C565        C587   1.468       .  S
N566        C567   1.352       .  A
C567        N568   1.353       .  A
C567        C767   1.459       .  S
N568        C569   1.359       .  A
C569        N570   1.363       .  A
C571        N572   1.356       .  A
C571        N576   1.362       .  A
N572        C573   1.358       .  A
C573        N574   1.358       .  A
N574        C575   1.359       .  A
C575        N576   1.361       .  A
C577        N583   1.347       .  A
C577        C582   1.385       .  A
C577        C578   1.409       .  A
C578        H589   1.082       .  S
C578        C579   1.408       .  A
C579        C588   1.385       .  A
C579        C580   1.385       .  A
C580        N586   1.336       .  A
C580        C581   1.395       .  A
C581        H590   1.083       .  S
C581        C582   1.394       .  A
C582        C585   1.368       .  A
N583        C584   1.358       .  A
N583        H593   1.045       .  S
C584        C585   1.390       .  A
C585        H591   1.083   1_565  S
N586        C587   1.352       .  A
N586        H594   1.045       .  S
C587        C588   1.398       .  A
C588        H592   1.082       .  S
C595        N601   1.342       .  A
C595        C600   1.384       .  A
C595        C596   1.403       .  A
C596        H607   1.083       .  S
C596        C597   1.401       .  A
C597        C606   1.377       .  A
C597        C598   1.384       .  A
C598        N604   1.347       .  A
C598        C599   1.408       .  A
C599        H608   1.082       .  S
C599        C600   1.408       .  A
C600        C603   1.386       .  A
N601        C602   1.356       .  A
N601        H611   1.045       .  S
C602        C603   1.399       .  A
C603        H609   1.082       .  S
N604        C605   1.357       .  A
N604        H612   1.044       .  S
C605        C606   1.395       .  A
C606        H610   1.083       .  S
C613        N619   1.350       .  A
C613        C618   1.385       .  A
C613        C614   1.408       .  A
C614        H625   1.082       .  S
C614        C615   1.408       .  A
C615        C624   1.381       .  A
C615        C616   1.385       .  A
C616        N622   1.339       .  A
C616        C617   1.395       .  A
C617        H626   1.083       .  S
C617        C618   1.395       .  A
C618        C621   1.365       .  A
N619        C620   1.358       .  A
N619        H629   1.045       .  S
C620        C621   1.390       .  A
C621        H627   1.083       .  S
N622        C623   1.352       .  A
N622        H630   1.045       .  S
C623        C624   1.397       .  A
C624        H628   1.082       .  S
C631        N637   1.339       .  A
C631        C636   1.386       .  A
C631        C632   1.398       .  A
C632        H643   1.083       .  S
C632        C633   1.398       .  A
C633        C642   1.370       .  A
C633        C634   1.385       .  A
C634        N640   1.345       .  A
C634        C635   1.404       .  A
C635        H644   1.082       .  S
C635        C636   1.403       .  A
C636        C639   1.379       .  A
N637        C638   1.352       .  A
N637        H647   1.046       .  S
C638        C639   1.393       .  A
C639        H645   1.082       .  S
N640        C641   1.356       .  A
N640        H648   1.045       .  S
C641        C642   1.393       .  A
C642        H646   1.083       .  S
C649        N655   1.347       .  A
C649        C654   1.385       .  A
C649        C650   1.407       .  A
C650        H661   1.082       .  S
C650        C651   1.407       .  A
C651        C660   1.382       .  A
C651        C652   1.385       .  A
C652        N658   1.342       .  A
C652        C653   1.401       .  A
C653        H662   1.082       .  S
C653        C654   1.400       .  A
C654        C657   1.374       .  A
N655        C656   1.356       .  A
N655        H665   1.045       .  S
C656        C657   1.394       .  A
C657        H663   1.083       .  S
N658        C659   1.355       .  A
N658        H666   1.044       .  S
C659        C660   1.398       .  A
C660        H664   1.082       .  S
C667        N673   1.347       .  A
C667        C672   1.385       .  A
C667        C668   1.405       .  A
C668        H679   1.082       .  S
C668        C669   1.405       .  A
C669        C678   1.379       .  A
C669        C670   1.386       .  A
C670        N676   1.341       .  A
C670        C671   1.399       .  A
C671        H680   1.083       .  S
C671        C672   1.399       .  A
C672        C675   1.371       .  A
N673        C674   1.356       .  A
N673        H683   1.044       .  S
C674        C675   1.393       .  A
C675        H681   1.083       .  S
N676        C677   1.353       .  A
N676        H684   1.045       .  S
C677        C678   1.395       .  A
C678        H682   1.082       .  S
C685        N691   1.343       .  A
C685        C690   1.385       .  A
C685        C686   1.401       .  A
C686        H697   1.082       .  S
C686        C687   1.400       .  A
C687        C696   1.375       .  A
C687        C688   1.385       .  A
C688        N694   1.343       .  A
C688        C689   1.404       .  A
C689        H698   1.083       .  S
C689        C690   1.404       .  A
C690        C693   1.377       .  A
N691        C692   1.353       .  A
N691        H701   1.045       .  S
C692        C693   1.397       .  A
C693        H699   1.083       .  S
N694        C695   1.357       .  A
N694        H702   1.044       .  S
C695        C696   1.392       .  A
C696        H700   1.082       .  S
C703        N709   1.341       .  A
C703        C708   1.385       .  A
C703        C704   1.403       .  A
C704        H715   1.082       .  S
C704        C705   1.401       .  A
C705        C714   1.380       .  A
C705        C706   1.385       .  A
C706        N712   1.343       .  A
C706        C707   1.405       .  A
C707        H716   1.083       .  S
C707        C708   1.404       .  A
C708        C711   1.382       .  A
N709        C710   1.354       .  A
N709        H719   1.044       .  S
C710        C711   1.395       .  A
C711        H717   1.082       .  S
N712        C713   1.357       .  A
N712        H720   1.045       .  S
C713        C714   1.395       .  A
C714        H718   1.082       .  S
C721        N727   1.337       .  A
C721        C726   1.385       .  A
C721        C722   1.395       .  A
C722        H733   1.083       .  S
C722        C723   1.394       .  A
C723        C732   1.367       .  A
C723        C724   1.384       .  A
C724        N730   1.349       .  A
C724        C725   1.410       .  A
C725        H734   1.082       .  S
C725        C726   1.409       .  A
C726        C729   1.385       .  A
N727        C728   1.352       .  A
N727        H737   1.046       .  S
C728        C729   1.399       .  A
C729        H735   1.082       .  S
N730        C731   1.359       .  A
N730        H738   1.047       .  S
C731        C732   1.391       .  A
C732        H736   1.083       .  S
C739        N745   1.345       .  A
C739        C744   1.385       .  A
C739        C740   1.407       .  A
C740        H751   1.082       .  S
C740        C741   1.405       .  A
C741        C750   1.385       .  A
C741        C742   1.385       .  A
C742        N748   1.340       .  A
C742        C743   1.402       .  A
C743        H752   1.083       .  S
C743        C744   1.400       .  A
C744        C747   1.377       .  A
N745        C746   1.357       .  A
N745        H755   1.046       .  S
C746        C747   1.394       .  A
C747        H753   1.083   1_556  S
N748        C749   1.356       .  A
N748        H756   1.045       .  S
C749        C750   1.396       .  A
C750        H754   1.082       .  S
C757        N763   1.338       .  A
C757        C762   1.386       .  A
C757        C758   1.398       .  A
C758        H769   1.083       .  S
C758        C759   1.397       .  A
C759        C768   1.373       .  A
C759        C760   1.386       .  A
C760        N766   1.343       .  A
C760        C761   1.403       .  A
C761        H770   1.082       .  S
C761        C762   1.402       .  A
C762        C765   1.377       .  A
N763        C764   1.352       .  A
N763        H773   1.045       .  S
C764        C765   1.395       .  A
C765        H771   1.083       .  S
N766        C767   1.354       .  A
N766        H774   1.044       .  S
C767        C768   1.391       .  A
C768        H772   1.083       .  S
C775        N781   1.345       .  A
C775        C780   1.384       .  A
C775        C776   1.403       .  A
C776        H787   1.083       .  S
C776        C777   1.403       .  A
C777        C786   1.377       .  A
C777        C778   1.385       .  A
C778        N784   1.346       .  A
C778        C779   1.404       .  A
C779        H788   1.082       .  S
C779        C780   1.404       .  A
C780        C783   1.379       .  A
N781        C782   1.356       .  A
N781        H791   1.045       .  S
C782        C783   1.396       .  A
C783        H789   1.082       .  S
N784        C785   1.355       .  A
N784        H792   1.045       .  S
C785        C786   1.396       .  A
C786        H790   1.083       .  S
C793        N799   1.342       .  A
C793        C798   1.385       .  A
C793        C794   1.398       .  A
C794        H805   1.082       .  S
C794        C795   1.399       .  A
C795        C804   1.371       .  A
C795        C796   1.385       .  A
C796        N802   1.349       .  A
C796        C797   1.408       .  A
C797        H806   1.082       .  S
C797        C798   1.409       .  A
C798        C801   1.382       .  A
N799        C800   1.353       .  A
N799        H809   1.045       .  S
C800        C801   1.399       .  A
C801        H807   1.082       .  S
N802        C803   1.358       .  A
N802        H810   1.046       .  S
C803        C804   1.394       .  A
C804        H808   1.083       .  S
C811        N817   1.348       .  A
C811        C816   1.384       .  A
C811        C812   1.410       .  A
C812        H823   1.082       .  S
C812        C813   1.410       .  A
C813        C822   1.388       .  A
C813        C814   1.385       .  A
C814        N820   1.337       .  A
C814        C815   1.397       .  A
C815        H824   1.083       .  S
C815        C816   1.395       .  A
C816        C819   1.370       .  A
N817        C818   1.358       .  A
N817        H827   1.045       .  S
C818        C819   1.392       .  A
C819        H825   1.083   1_655  S
N820        C821   1.353       .  A
N820        H828   1.045       .  S
C821        C822   1.400       .  A
C822        H826   1.082       .  S
C829        N835   1.345       .  A
C829        C834   1.385       .  A
C829        C830   1.406       .  A
C830        H841   1.082       .  S
C830        C831   1.405       .  A
C831        C840   1.383       .  A
C831        C832   1.385       .  A
C832        N838   1.336       .  A
C832        C833   1.398       .  A
C833        H842   1.083       .  S
C833        C834   1.396       .  A
C834        C837   1.372       .  A
N835        C836   1.356       .  A
N835        H845   1.045       .  S
C836        C837   1.393       .  A
C837        H843   1.083       .  S
N838        C839   1.353       .  A
N838        H846   1.045       .  S
C839        C840   1.395       .  A
C840        H844   1.082       .  S
C847        N853   1.338       .  A
C847        C852   1.385       .  A
C847        C848   1.395       .  A
C848        H859   1.083       .  S
C848        C849   1.395       .  A
C849        C858   1.368       .  A
C849        C850   1.384       .  A
C850        N856   1.350       .  A
C850        C851   1.410       .  A
C851        H860   1.082       .  S
C851        C852   1.411       .  A
C852        C855   1.385       .  A
N853        C854   1.351       .  A
N853        H863   1.045       .  S
C854        C855   1.401       .  A
C855        H861   1.083       .  S
N856        C857   1.358       .  A
N856        H864   1.046       .  S
C857        C858   1.391       .  A
C858        H862   1.083       .  S
C865        N871   1.346       .  A
C865        C870   1.385       .  A
C865        C866   1.407       .  A
C866        H877   1.082       .  S
C866        C867   1.407       .  A
C867        C876   1.384       .  A
C867        C868   1.385       .  A
C868        N874   1.338       .  A
C868        C869   1.398       .  A
C869        H878   1.083       .  S
C869        C870   1.396       .  A
C870        C873   1.371       .  A
N871        C872   1.356       .  A
N871        H881   1.046       .  S
C872        C873   1.391       .  A
C873        H879   1.083       .  S
N874        C875   1.353       .  A
N874        H882   1.045       .  S
C875        C876   1.399       .  A
C876        H880   1.082       .  S
C883        N889   1.340       .  A
C883        C888   1.385       .  A
C883        C884   1.398       .  A
C884        H895   1.082       .  S
C884        C885   1.397       .  A
C885        C894   1.372       .  A
C885        C886   1.385       .  A
C886        N892   1.346       .  A
C886        C887   1.406       .  A
C887        H896   1.082       .  S
C887        C888   1.406       .  A
C888        C891   1.381       .  A
N889        C890   1.352       .  A
N889        H899   1.044       .  S
C890        C891   1.397       .  A
C891        H897   1.083       .  S
N892        C893   1.356       .  A
N892        H900   1.044       .  S
C893        C894   1.390       .  A
C894        H898   1.083       .  S
C901        N907   1.336       .  A
C901        C906   1.386       .  A
C901        C902   1.397       .  A
C902        H913   1.083       .  S
C902        C903   1.395       .  A
C903        C912   1.370       .  A
C903        C904   1.385       .  A
C904        N910   1.343       .  A
C904        C905   1.404       .  A
C905        H914   1.082       .  S
C905        C906   1.403       .  A
C906        C909   1.380       .  A
N907        C908   1.351       .  A
N907        H917   1.046       .  S
C908        C909   1.394       .  A
C909        H915   1.082       .  S
N910        C911   1.355       .  A
N910        H918   1.044       .  S
C911        C912   1.390       .  A
C912        H916   1.083       .  S
C919        N925   1.345       .  A
C919        C924   1.386       .  A
C919        C920   1.403       .  A
C920        H931   1.082       .  S
C920        C921   1.403       .  A
C921        C930   1.379       .  A
C921        C922   1.385       .  A
C922        N928   1.340       .  A
C922        C923   1.400       .  A
C923        H932   1.083       .  S
C923        C924   1.399       .  A
C924        C927   1.372       .  A
N925        C926   1.354       .  A
N925        H935   1.045       .  S
C926        C927   1.393       .  A
C927        H933   1.083       .  S
N928        C929   1.355       .  A
N928        H936   1.045       .  S
C929        C930   1.395       .  A
C930        H934   1.082       .  S
C937        N943   1.338       .  A
C937        C942   1.385       .  A
C937        C938   1.399       .  A
C938        H949   1.083       .  S
C938        C939   1.397       .  A
C939        C948   1.373       .  A
C939        C940   1.384       .  A
C940        N946   1.346       .  A
C940        C941   1.408       .  A
C941        H950   1.082       .  S
C941        C942   1.407       .  A
C942        C945   1.386       .  A
N943        C944   1.353       .  A
N943        H953   1.045       .  S
C944        C945   1.397       .  A
C945        H951   1.082       .  S
N946        C947   1.357       .  A
N946        H954   1.045       .  S
C947        C948   1.393       .  A
C948        H952   1.083   1_556  S
C955        N961   1.346       .  A
C955        C960   1.385       .  A
C955        C956   1.405       .  A
C956        H967   1.082       .  S
C956        C957   1.405       .  A
C957        C966   1.380       .  A
C957        C958   1.385       .  A
C958        N964   1.340       .  A
C958        C959   1.399       .  A
C959        H968   1.083       .  S
C959        C960   1.399       .  A
C960        C963   1.371       .  A
N961        C962   1.356       .  A
N961        H971   1.047       .  S
C962        C963   1.394       .  A
C963        H969   1.083       .  S
N964        C965   1.353       .  A
N964        H972   1.046       .  S
C965        C966   1.395       .  A
C966        H970   1.082       .  S
C973        N979   1.337       .  A
C973        C978   1.384       .  A
C973        C974   1.398       .  A
C974        H985   1.083       .  S
C974        C975   1.395       .  A
C975        C984   1.371       .  A
C975        C976   1.384       .  A
C976        N982   1.349       .  A
C976        C977   1.412       .  A
C977        H986   1.082       .  S
C977        C978   1.411       .  A
C978        C981   1.391       .  A
N979        C980   1.354       .  A
N979        H989   1.045       .  S
C980        C981   1.401       .  A
C981        H987   1.082       .  S
N982        C983   1.359       .  A
N982        H990   1.045       .  S
C983        C984   1.392       .  A
C984        H988   1.083       .  S
C991        N997   1.344       .  A
C991        C996   1.385       .  A
C991        C992   1.404       .  A
C992       H1003   1.082       .  S
C992        C993   1.403       .  A
C993       C1002   1.379       .  A
C993        C994   1.386       .  A
C994       N1000   1.339       .  A
C994        C995   1.398       .  A
C995       H1004   1.083       .  S
C995        C996   1.397       .  A
C996        C999   1.370       .  A
N997        C998   1.355       .  A
N997       H1007   1.044       .  S
C998        C999   1.392       .  A
C999       H1005   1.083       .  S
N1000      C1001   1.352       .  A
N1000      H1008   1.046       .  S
C1001      C1002   1.394       .  A
C1002      H1006   1.082       .  S
C1009      N1015   1.347       .  A
C1009      C1014   1.385       .  A
C1009      C1010   1.407       .  A
C1010      H1021   1.082       .  S
C1010      C1011   1.407       .  A
C1011      C1020   1.384       .  A
C1011      C1012   1.385       .  A
C1012      N1018   1.340       .  A
C1012      C1013   1.400       .  A
C1013      H1022   1.083       .  S
C1013      C1014   1.399       .  A
C1014      C1017   1.372       .  A
N1015      C1016   1.356       .  A
N1015      H1025   1.045       .  S
C1016      C1017   1.394       .  A
C1017      H1023   1.083       .  S
N1018      C1019   1.355       .  A
N1018      H1026   1.045       .  S
C1019      C1020   1.397       .  A
C1020      H1024   1.082       .  S
C1027      N1033   1.338       .  A
C1027      C1032   1.386       .  A
C1027      C1028   1.396       .  A
C1028      H1039   1.083       .  S
C1028      C1029   1.396       .  A
C1029      C1038   1.367       .  A
C1029      C1030   1.385       .  A
C1030      N1036   1.348       .  A
C1030      C1031   1.406       .  A
C1031      H1040   1.082       .  S
C1031      C1032   1.407       .  A
C1032      C1035   1.381       .  A
N1033      C1034   1.351       .  A
N1033      H1043   1.047       .  S
C1034      C1035   1.397       .  A
C1035      H1041   1.082       .  S
N1036      C1037   1.357       .  A
N1036      H1044   1.044       .  S
C1037      C1038   1.391       .  A
C1038      H1042   1.083       .  S
C1045      N1051   1.342       .  A
C1045      C1050   1.385       .  A
C1045      C1046   1.400       .  A
C1046      H1057   1.083       .  S
C1046      C1047   1.399       .  A
C1047      C1056   1.373       .  A
C1047      C1048   1.385       .  A
C1048      N1054   1.346       .  A
C1048      C1049   1.405       .  A
C1049      H1058   1.082       .  S
C1049      C1050   1.405       .  A
C1050      C1053   1.379       .  A
N1051      C1052   1.354       .  A
N1051      H1061   1.045       .  S
C1052      C1053   1.397       .  A
C1053      H1059   1.082       .  S
N1054      C1055   1.356       .  A
N1054      H1062   1.044       .  S
C1055      C1056   1.393       .  A
C1056      H1060   1.083       .  S
C1063      N1069   1.348       .  A
C1063      C1068   1.385       .  A
C1063      C1064   1.406       .  A
C1064      H1075   1.082       .  S
C1064      C1065   1.406       .  A
C1065      C1074   1.382       .  A
C1065      C1066   1.384       .  A
C1066      N1072   1.342       .  A
C1066      C1067   1.401       .  A
C1067      H1076   1.083       .  S
C1067      C1068   1.401       .  A
C1068      C1071   1.373       .  A
N1069      C1070   1.356       .  A
N1069      H1079   1.045       .  S
C1070      C1071   1.395       .  A
C1071      H1077   1.083       .  S
N1072      C1073   1.355       .  A
N1072      H1080   1.045       .  S
C1073      C1074   1.397       .  A
C1074      H1078   1.082   1_565  S
C1081      N1087   1.343       .  A
C1081      C1086   1.386       .  A
C1081      C1082   1.401       .  A
C1082      H1093   1.082       .  S
C1082      C1083   1.401       .  A
C1083      C1092   1.376       .  A
C1083      C1084   1.385       .  A
C1084      N1090   1.344       .  A
C1084      C1085   1.404       .  A
C1085      H1094   1.082       .  S
C1085      C1086   1.403       .  A
C1086      C1089   1.378       .  A
N1087      C1088   1.353       .  A
N1087      H1097   1.045       .  S
C1088      C1089   1.394       .  A
C1089      H1095   1.082       .  S
N1090      C1091   1.356       .  A
N1090      H1098   1.045       .  S
C1091      C1092   1.394       .  A
C1092      H1096   1.082       .  S
C1099      N1105   1.342       .  A
C1099      C1104   1.385       .  A
C1099      C1100   1.401       .  A
C1100      H1111   1.082       .  S
C1100      C1101   1.400       .  A
C1101      C1110   1.375       .  A
C1101      C1102   1.385       .  A
C1102      N1108   1.344       .  A
C1102      C1103   1.404       .  A
C1103      H1112   1.082       .  S
C1103      C1104   1.404       .  A
C1104      C1107   1.379       .  A
N1105      C1106   1.355       .  A
N1105      H1115   1.043       .  S
C1106      C1107   1.397       .  A
C1107      H1113   1.083       .  S
N1108      C1109   1.355       .  A
N1108      H1116   1.045       .  S
C1109      C1110   1.393       .  A
C1110      H1114   1.083       .  S
C1117      N1123   1.338       .  A
C1117      C1122   1.386       .  A
C1117      C1118   1.399       .  A
C1118      H1129   1.083       .  S
C1118      C1119   1.397       .  A
C1119      C1128   1.373       .  A
C1119      C1120   1.385       .  A
C1120      N1126   1.341       .  A
C1120      C1121   1.402       .  A
C1121      H1130   1.082       .  S
C1121      C1122   1.401       .  A
C1122      C1125   1.377       .  A
N1123      C1124   1.352       .  A
N1123      H1133   1.046       .  S
C1124      C1125   1.392       .  A
C1125      H1131   1.082       .  S
N1126      C1127   1.354       .  A
N1126      H1134   1.045       .  S
C1127      C1128   1.391       .  A
C1128      H1132   1.083       .  S
C1135      N1141   1.337       .  A
C1135      C1140   1.385       .  A
C1135      C1136   1.396       .  A
C1136      H1147   1.083       .  S
C1136      C1137   1.395       .  A
C1137      C1146   1.369       .  A
C1137      C1138   1.385       .  A
C1138      N1144   1.346       .  A
C1138      C1139   1.407       .  A
C1139      H1148   1.082       .  S
C1139      C1140   1.407       .  A
C1140      C1143   1.384       .  A
N1141      C1142   1.353       .  A
N1141      H1151   1.045       .  S
C1142      C1143   1.398       .  A
C1143      H1149   1.082       .  S
N1144      C1145   1.356       .  A
N1144      H1152   1.047       .  S
C1145      C1146   1.390       .  A
C1146      H1150   1.083       .  S
C1153      N1159   1.341       .  A
C1153      C1158   1.385       .  A
C1153      C1154   1.401       .  A
C1154      H1165   1.083       .  S
C1154      C1155   1.400       .  A
C1155      C1164   1.374       .  A
C1155      C1156   1.386       .  A
C1156      N1162   1.342       .  A
C1156      C1157   1.400       .  A
C1157      H1166   1.082       .  S
C1157      C1158   1.400       .  A
C1158      C1161   1.374       .  A
N1159      C1160   1.354       .  A
N1159      H1169   1.045       .  S
C1160      C1161   1.394       .  A
C1161      H1167   1.083       .  S
N1162      C1163   1.352       .  A
N1162      H1170   1.044       .  S
C1163      C1164   1.392       .  A
C1164      H1168   1.083       .  S
C1171      N1177   1.339       .  A
C1171      C1176   1.386       .  A
C1171      C1172   1.396       .  A
C1172      H1183   1.082       .  S
C1172      C1173   1.395       .  A
C1173      C1182   1.368       .  A
C1173      C1174   1.385       .  A
C1174      N1180   1.348       .  A
C1174      C1175   1.407       .  A
C1175      H1184   1.082       .  S
C1175      C1176   1.408       .  A
C1176      C1179   1.382       .  A
N1177      C1178   1.351       .  A
N1177      H1187   1.045       .  S
C1178      C1179   1.398       .  A
C1179      H1185   1.082       .  S
N1180      C1181   1.357       .  A
N1180      H1188   1.045       .  S
C1181      C1182   1.389       .  A
C1182      H1186   1.083       .  S
C1189      N1195   1.337       .  A
C1189      C1194   1.385       .  A
C1189      C1190   1.398       .  A
C1190      H1201   1.083       .  S
C1190      C1191   1.396       .  A
C1191      C1200   1.371       .  A
C1191      C1192   1.385       .  A
C1192      N1198   1.343       .  A
C1192      C1193   1.403       .  A
C1193      H1202   1.082       .  S
C1193      C1194   1.402       .  A
C1194      C1197   1.379       .  A
N1195      C1196   1.354       .  A
N1195      H1205   1.045       .  S
C1196      C1197   1.394       .  A
C1197      H1203   1.082       .  S
N1198      C1199   1.355       .  A
N1198      H1206   1.045       .  S
C1199      C1200   1.392       .  A
C1200      H1204   1.083   1_655  S
C1207      N1213   1.345       .  A
C1207      C1212   1.385       .  A
C1207      C1208   1.406       .  A
C1208      H1219   1.082       .  S
C1208      C1209   1.405       .  A
C1209      C1218   1.384       .  A
C1209      C1210   1.385       .  A
C1210      N1216   1.338       .  A
C1210      C1211   1.400       .  A
C1211      H1220   1.083       .  S
C1211      C1212   1.398       .  A
C1212      C1215   1.374       .  A
N1213      C1214   1.356       .  A
N1213      H1223   1.044       .  S
C1214      C1215   1.392       .  A
C1215      H1221   1.083       .  S
N1216      C1217   1.353       .  A
N1216      H1224   1.048       .  S
C1217      C1218   1.396       .  A
C1218      H1222   1.082       .  S
C1225      N1231   1.339       .  A
C1225      C1230   1.385       .  A
C1225      C1226   1.400       .  A
C1226      H1237   1.083       .  S
C1226      C1227   1.398       .  A
C1227      C1236   1.374       .  A
C1227      C1228   1.385       .  A
C1228      N1234   1.343       .  A
C1228      C1229   1.404       .  A
C1229      H1238   1.082       .  S
C1229      C1230   1.403       .  A
C1230      C1233   1.380       .  A
N1231      C1232   1.354       .  A
N1231      H1241   1.045       .  S
C1232      C1233   1.395       .  A
C1233      H1239   1.082       .  S
N1234      C1235   1.356       .  A
N1234      H1242   1.045       .  S
C1235      C1236   1.393       .  A
C1236      H1240   1.083       .  S
C1243      N1249   1.340       .  A
C1243      C1248   1.385       .  A
C1243      C1244   1.399       .  A
C1244      H1255   1.083       .  S
C1244      C1245   1.398       .  A
C1245      C1254   1.372       .  A
C1245      C1246   1.385       .  A
C1246      N1252   1.346       .  A
C1246      C1247   1.406       .  A
C1247      H1256   1.082       .  S
C1247      C1248   1.406       .  A
C1248      C1251   1.382       .  A
N1249      C1250   1.353       .  A
N1249      H1259   1.046       .  S
C1250      C1251   1.396       .  A
C1251      H1257   1.082       .  S
N1252      C1253   1.356       .  A
N1252      H1260   1.045       .  S
C1253      C1254   1.392       .  A
C1254      H1258   1.083       .  S
C1261      N1267   1.343       .  A
C1261      C1266   1.384       .  A
C1261      C1262   1.406       .  A
C1262      H1273   1.082       .  S
C1262      C1263   1.403       .  A
C1263      C1272   1.383       .  A
C1263      C1264   1.384       .  A
C1264      N1270   1.341       .  A
C1264      C1265   1.404       .  A
C1265      H1274   1.083       .  S
C1265      C1266   1.402       .  A
C1266      C1269   1.381       .  A
N1267      C1268   1.357       .  A
N1267      H1277   1.046       .  S
C1268      C1269   1.396       .  A
C1269      H1275   1.082       .  S
N1270      C1271   1.357       .  A
N1270      H1278   1.045       .  S
C1271      C1272   1.395       .  A
C1272      H1276   1.082       .  S
C1279      N1285   1.337       .  A
C1279      C1284   1.386       .  A
C1279      C1280   1.397       .  A
C1280      H1291   1.083       .  S
C1280      C1281   1.396       .  A
C1281      C1290   1.369       .  A
C1281      C1282   1.386       .  A
C1282      N1288   1.341       .  A
C1282      C1283   1.401       .  A
C1283      H1292   1.082       .  S
C1283      C1284   1.400       .  A
C1284      C1287   1.375       .  A
N1285      C1286   1.352       .  A
N1285      H1295   1.046       .  S
C1286      C1287   1.393       .  A
C1287      H1293   1.082       .  S
N1288      C1289   1.352       .  A
N1288      H1296   1.045       .  S
C1289      C1290   1.390       .  A
C1290      H1294   1.083       .  S
C1297      N1303   1.339       .  A
C1297      C1302   1.386       .  A
C1297      C1298   1.400       .  A
C1298      H1309   1.083       .  S
C1298      C1299   1.398       .  A
C1299      C1308   1.374       .  A
C1299      C1300   1.386       .  A
C1300      N1306   1.340       .  A
C1300      C1301   1.401       .  A
C1301      H1310   1.082       .  S
C1301      C1302   1.399       .  A
C1302      C1305   1.376       .  A
N1303      C1304   1.352       .  A
N1303      H1313   1.045       .  S
C1304      C1305   1.391       .  A
C1305      H1311   1.082       .  S
N1306      C1307   1.354       .  A
N1306      H1314   1.044       .  S
C1307      C1308   1.392       .  A
C1308      H1312   1.083       .  S
C1315      N1321   1.340       .  A
C1315      C1320   1.385       .  A
C1315      C1316   1.397       .  A
C1316      H1327   1.083       .  S
C1316      C1317   1.397       .  A
C1317      C1326   1.367       .  A
C1317      C1318   1.385       .  A
C1318      N1324   1.350       .  A
C1318      C1319   1.408       .  A
C1319      H1328   1.082       .  S
C1319      C1320   1.409       .  A
C1320      C1323   1.383       .  A
N1321      C1322   1.353       .  A
N1321      H1331   1.045       .  S
C1322      C1323   1.399       .  A
C1323      H1329   1.082       .  S
N1324      C1325   1.357       .  A
N1324      H1332   1.046       .  S
C1325      C1326   1.392       .  A
C1326      H1330   1.083       .  S
C1333      N1339   1.335       .  A
C1333      C1338   1.386       .  A
C1333      C1334   1.394       .  A
C1334      H1345   1.083       .  S
C1334      C1335   1.393       .  A
C1335      C1344   1.366       .  A
C1335      C1336   1.385       .  A
C1336      N1342   1.345       .  A
C1336      C1337   1.406       .  A
C1337      H1346   1.082       .  S
C1337      C1338   1.405       .  A
C1338      C1341   1.381       .  A
N1339      C1340   1.351       .  A
N1339      H1349   1.045       .  S
C1340      C1341   1.395       .  A
C1341      H1347   1.082       .  S
N1342      C1343   1.356       .  A
N1342      H1350   1.046       .  S
C1343      C1344   1.390       .  A
C1344      H1348   1.083       .  S
C1351      N1357   1.341       .  A
C1351      C1356   1.386       .  A
C1351      C1352   1.396       .  A
C1352      H1363   1.083       .  S
C1352      C1353   1.397       .  A
C1353      C1362   1.366       .  A
C1353      C1354   1.385       .  A
C1354      N1360   1.348       .  A
C1354      C1355   1.405       .  A
C1355      H1364   1.082       .  S
C1355      C1356   1.406       .  A
C1356      C1359   1.378       .  A
N1357      C1358   1.353       .  A
N1357      H1367   1.045       .  S
C1358      C1359   1.395       .  A
C1359      H1365   1.082       .  S
N1360      C1361   1.356       .  A
N1360      H1368   1.043       .  S
C1361      C1362   1.392       .  A
C1362      H1366   1.083       .  S
C1369      N1375   1.336       .  A
C1369      C1374   1.385       .  A
C1369      C1370   1.396       .  A
C1370      H1381   1.083       .  S
C1370      C1371   1.395       .  A
C1371      C1380   1.370       .  A
C1371      C1372   1.385       .  A
C1372      N1378   1.346       .  A
C1372      C1373   1.407       .  A
C1373      H1382   1.082       .  S
C1373      C1374   1.406       .  A
C1374      C1377   1.382       .  A
N1375      C1376   1.352       .  A
N1375      H1385   1.045       .  S
C1376      C1377   1.397       .  A
C1377      H1383   1.082       .  S
N1378      C1379   1.356       .  A
N1378      H1386   1.044       .  S
C1379      C1380   1.390       .  A
C1380      H1384   1.083       .  S
C1387      N1393   1.348       .  A
C1387      C1392   1.384       .  A
C1387      C1388   1.411       .  A
C1388      H1399   1.082       .  S
C1388      C1389   1.409       .  A
C1389      C1398   1.391       .  A
C1389      C1390   1.384       .  A
C1390      N1396   1.335       .  A
C1390      C1391   1.398       .  A
C1391      H1400   1.083       .  S
C1391      C1392   1.396       .  A
C1392      C1395   1.374       .  A
N1393      C1394   1.360       .  A
N1393      H1403   1.044       .  S
C1394      C1395   1.393       .  A
C1395      H1401   1.083       .  S
N1396      C1397   1.354       .  A
N1396      H1404   1.045       .  S
C1397      C1398   1.399       .  A
C1398      H1402   1.082       .  S
C1405      N1411   1.335       .  A
C1405      C1410   1.385       .  A
C1405      C1406   1.396       .  A
C1406      H1417   1.083       .  S
C1406      C1407   1.394       .  A
C1407      C1416   1.370       .  A
C1407      C1408   1.385       .  A
C1408      N1414   1.347       .  A
C1408      C1409   1.409       .  A
C1409      H1418   1.082       .  S
C1409      C1410   1.408       .  A
C1410      C1413   1.386       .  A
N1411      C1412   1.352       .  A
N1411      H1421   1.044       .  S
C1412      C1413   1.399       .  A
C1413      H1419   1.082       .  S
N1414      C1415   1.357       .  A
N1414      H1422   1.045       .  S
C1415      C1416   1.391       .  A
C1416      H1420   1.083       .  S
C1423      N1429   1.348       .  A
C1423      C1428   1.384       .  A
C1423      C1424   1.410       .  A
C1424      H1435   1.082       .  S
C1424      C1425   1.409       .  A
C1425      C1434   1.389       .  A
C1425      C1426   1.384       .  A
C1426      N1432   1.339       .  A
C1426      C1427   1.401       .  A
C1427      H1436   1.083       .  S
C1427      C1428   1.399       .  A
C1428      C1431   1.375       .  A
N1429      C1430   1.359       .  A
N1429      H1439   1.045       .  S
C1430      C1431   1.394       .  A
C1431      H1437   1.083       .  S
N1432      C1433   1.356       .  A
N1432      H1440   1.045       .  S
C1433      C1434   1.398       .  A
C1434      H1438   1.082       .  S
