geometry optimzed in LAMMPS
_audit_creation_date              2020-11-30 
_audit_creation_method            'lammps2cif' 
_symmetry_space_group_name_H-M    'P1' 
_symmetry_Int_Tables_number       1 
_symmetry_cell_setting            triclinic 
loop_ 
_symmetry_equiv_pos_as_xyz 
  x,y,z 
_cell_length_a                    70.71642748 
_cell_length_b                    70.90152258592452 
_cell_length_c                    70.65729903499029 
_cell_angle_alpha                 90.02060765035424 
_cell_angle_beta                  89.8527821517714 
_cell_angle_gamma                 90.09263889376206 
loop_ 
_atom_site_label 
_atom_site_type_symbol 
_atom_site_fract_x 
_atom_site_fract_y 
_atom_site_fract_z 
_atom_site_charge 
O1          O  0.28356762  0.73903422  0.48085519    -0.78200
C2          C  0.28901025  0.70730719  0.53331026     0.82800
O3          O  0.26202302  0.67118585  0.47651168    -0.79300
O4          O  0.22836381  0.69564322  0.53544394    -0.80800
O5          O  0.22512791  0.75061469  0.50217187    -0.80600
O6          O  0.25658799  0.74905872  0.46855901    -0.79200
Zn7        Zn  0.27690270  0.71377623  0.49239903     1.55700
O8          O  0.23638994  0.74213227  0.53042936    -0.80600
Cd9        Cd  0.23726647  0.73216414  0.48319374     1.59700
Cd10       Cd  0.24061990  0.68666288  0.49009440     1.59600
O11         O  0.21633049  0.72098808  0.46552434    -0.80600
O12         O  0.25048120  0.71194246  0.49766482    -1.91100
Cd13       Cd  0.24728803  0.71550129  0.52537607     1.59900
O14         O  0.21911433  0.69016008  0.47063261    -0.80600
O15         O  0.27257202  0.71087451  0.53984962    -0.79200
C16         C  0.27784714  0.67731367  0.47015056     0.83300
C17         C  0.27441111  0.75088913  0.47091403     0.83000
O18         O  0.29254789  0.70820994  0.51564865    -0.78200
C19         C  0.22733312  0.75355261  0.51983945     0.83800
O20         O  0.28374754  0.69378616  0.47407974    -0.78300
C21         C  0.21103638  0.70402500  0.46248132     0.83900
C22         C  0.22275442  0.67962229  0.52940945     0.84200
O23         O  0.22763929  0.67328826  0.51316527    -0.80700
O24         O  0.79218461  0.71162087  0.98079154    -0.78200
C25         C  0.77477376  0.75517419  0.02431778     0.82800
O26         O  0.76375794  0.67437097  0.02183032    -0.79300
O27         O  0.71904533  0.72269667  0.03604257    -0.80800
O28         O  0.73340225  0.74343365  0.96836368    -0.80600
O29         O  0.77098115  0.71408981  0.95786866    -0.79200
Zn30       Zn  0.77782845  0.71663333  0.00509651     1.55700
O31         O  0.72161547  0.75101125  0.99676853    -0.80600
Cd32       Cd  0.74635722  0.71780638  0.97348389     1.59700
Cd33       Cd  0.74206084  0.68922156  0.00880103     1.59600
O34         O  0.72854943  0.69686194  0.96408119    -0.80600
O35         O  0.75100187  0.71465439  0.00098573    -1.91100
Cd36       Cd  0.73722785  0.73464906  0.01553028     1.59900
O37         O  0.72921605  0.67476939  0.98653115    -0.80600
O38         O  0.75694780  0.75349356  0.02701236    -0.79200
C39         C  0.77994537  0.68009262  0.02739974     0.83300
C40         C  0.78785285  0.71089668  0.96332086     0.83000
O41         O  0.78422345  0.74245618  0.01569497    -0.78200
C42         C  0.72318745  0.75385642  0.97897940     0.83800
O43         O  0.78630188  0.69637291  0.02309156    -0.78300
C44         C  0.72397190  0.68060736  0.97027803     0.83900
C45         C  0.71435761  0.70547881  0.03886643     0.84200
O46         O  0.72169608  0.69215801  0.02925367    -0.80700
O47         O  0.20291443  0.52534275  0.20527340    -0.78200
C48         C  0.24350700  0.48118109  0.22675314     0.82800
O49         O  0.16323527  0.49092029  0.23667294    -0.79300
O50         O  0.21108669  0.47716896  0.28337679    -0.80800
O51         O  0.23640865  0.54147640  0.26222607    -0.80600
O52         O  0.20636218  0.55016423  0.22388387    -0.79200
Zn53       Zn  0.20680236  0.50264465  0.22188560     1.55700
O54         O  0.24213697  0.51399325  0.27661799    -0.80600
Cd55       Cd  0.21031287  0.53666856  0.24984658     1.59700
Cd56       Cd  0.17942946  0.50353849  0.25758250     1.59600
O57         O  0.19064729  0.54839311  0.26752776    -0.80600
O58         O  0.20524755  0.50920171  0.24810281    -1.91100
Cd59       Cd  0.22422427  0.49499111  0.26327762     1.59900
O60         O  0.16704332  0.52751937  0.26870018    -0.80600
O61         O  0.24204286  0.48064556  0.24477310    -0.79200
C62         C  0.16873320  0.48361640  0.22111447     0.83300
C63         C  0.20261657  0.54309754  0.20769507     0.83000
O64         O  0.23147867  0.48971847  0.21643998    -0.78200
C65         C  0.24607059  0.53131841  0.27355830     0.83800
O66         O  0.18548363  0.48578713  0.21486994    -0.78300
C67         C  0.17408048  0.54358820  0.27273430     0.83900
C68         C  0.19364768  0.47523159  0.28798297     0.84200
O69         O  0.18083354  0.48446017  0.27947456    -0.80700
O70         O  0.51865612  0.21684438  0.20073562    -0.78200
C71         C  0.47688325  0.23693181  0.24457845     0.82800
O72         O  0.48231021  0.24418789  0.16280966    -0.79300
O73         O  0.46823885  0.29175526  0.21017795    -0.80800
O74         O  0.53431909  0.27371971  0.23266283    -0.80600
O75         O  0.54317109  0.23633479  0.20167201    -0.79200
Zn76       Zn  0.49587850  0.23259789  0.20640403     1.55700
O77         O  0.50629730  0.28637563  0.24028017    -0.80600
Cd78       Cd  0.52918450  0.26182891  0.20641676     1.59700
Cd79       Cd  0.49461157  0.26680198  0.17729059     1.59600
O80         O  0.53931878  0.28017891  0.18621130    -0.80600
O81         O  0.50156311  0.25865795  0.20327576    -1.91100
Cd82       Cd  0.48709673  0.27280848  0.22291763     1.59900
O83         O  0.51738125  0.28017524  0.16359367    -0.80600
O84         O  0.47351121  0.25438733  0.24171129    -0.79200
C85         C  0.47393175  0.23000788  0.17025003     0.83300
C86         C  0.53627032  0.21991864  0.19885456     0.83000
O87         O  0.48620312  0.22713900  0.23266254    -0.78200
C88         C  0.52391339  0.28390974  0.24335583     0.83800
O89         O  0.47650167  0.22521372  0.18741068    -0.78300
C90         C  0.53350363  0.28533202  0.16995854     0.83900
C91         C  0.46474680  0.29512030  0.19273433     0.84200
O92         O  0.47360313  0.28683008  0.17939351    -0.80700
O93         O  0.29108885  0.21076236  0.47278571    -0.78200
C94         C  0.27163735  0.25091582  0.51873940     0.82800
O95         O  0.26518548  0.16994981  0.51043444    -0.79300
O96         O  0.21693345  0.21610195  0.52789958    -0.80800
O97         O  0.23554720  0.24313963  0.46322836    -0.80600
O98         O  0.26906923  0.20946004  0.45044109    -0.79200
Zn99       Zn  0.27642059  0.21411198  0.49717294     1.55700
O100        O  0.22094159  0.24751932  0.49096575    -0.80600
Cd101      Cd  0.24505951  0.21566574  0.46655510     1.59700
Cd102      Cd  0.24194266  0.18489005  0.50006743     1.59600
O103        O  0.22398990  0.19757801  0.45811499    -0.80600
O104        O  0.24987933  0.21093380  0.49356376    -1.91100
Cd105      Cd  0.23542889  0.22952888  0.50888011     1.59900
O106        O  0.22802979  0.17266402  0.47709123    -0.80600
O107        O  0.25413236  0.24786436  0.52205096    -0.79200
C108        C  0.28100298  0.17641293  0.51637687     0.83300
C109        C  0.28627759  0.20803413  0.45564225     0.83000
O110        O  0.28148065  0.23941995  0.50897353    -0.78200
C111        C  0.22472599  0.25271725  0.47407239     0.83800
O112        O  0.28584881  0.19351718  0.51376441    -0.78300
C113        C  0.22017376  0.18067731  0.46293899     0.83900
C114        C  0.21338384  0.19863850  0.53079369     0.84200
O115        O  0.22185507  0.18571078  0.52150069    -0.80700
O116        O  0.73625334  0.52087210  0.21868513    -0.78200
C117        C  0.70648022  0.46723817  0.21315827     0.82800
O118        O  0.66787387  0.52262411  0.23729680    -0.79300
O119        O  0.69366724  0.46694392  0.27384288    -0.80800
O120        O  0.74498308  0.50075261  0.28039230    -0.80600
O121        O  0.74604453  0.53221575  0.24644020    -0.79200
Zn122      Zn  0.71153314  0.50831537  0.22441185     1.55700
O123        O  0.73979387  0.47271937  0.26678689    -0.80600
Cd124      Cd  0.72775509  0.51897415  0.26542555     1.59700
Cd125      Cd  0.68280498  0.51054161  0.25962409     1.59600
O126        O  0.71470874  0.53825265  0.28393187    -0.80600
O127        O  0.70879798  0.50391737  0.25101323    -1.91100
Cd128      Cd  0.71332802  0.47670092  0.25487657     1.59900
O129        O  0.68427000  0.53128425  0.28013880    -0.80600
O130        O  0.70888965  0.46142411  0.23005714    -0.79200
C131        C  0.67426562  0.52860285  0.22145580     0.83300
C132        C  0.74800268  0.53027493  0.22857014     0.83000
O133        O  0.70804786  0.48463811  0.20901350    -0.78200
C134        C  0.74920124  0.48343952  0.27785894     0.83800
O135        O  0.69101051  0.52513972  0.21591831    -0.78300
C136        C  0.69730063  0.54084931  0.28811336     0.83900
C137        C  0.67713442  0.47213255  0.27872974     0.84200
O138        O  0.66977266  0.48745331  0.27270389    -0.80700
O139        O  0.01269247  0.29143924  0.25992971    -0.78200
C140        C  0.96329235  0.29979555  0.29595882     0.82800
O141        O  0.02022751  0.27376558  0.32911400    -0.79300
O142        O  0.96092272  0.23940318  0.30728592    -0.80800
O143        O  0.99015586  0.23129214  0.25451380    -0.80600
O144        O  0.02250034  0.26312931  0.25032466    -0.79200
Zn145      Zn  0.00362292  0.28701757  0.28682659     1.55700
O146        O  0.96350712  0.24690085  0.26089863    -0.80600
Cd147      Cd  0.01042002  0.24530440  0.27015677     1.59700
Cd148      Cd  0.00595171  0.25202988  0.31527449     1.59600
O149        O  0.02941155  0.22567087  0.28165243    -0.80600
O150        O  0.99788295  0.26078901  0.28994520    -1.91100
Cd151      Cd  0.97019349  0.25810567  0.28721001     1.59900
O152        O  0.02513435  0.23020587  0.31250817    -0.80600
O153        O  0.95654046  0.28333491  0.29329584    -0.79200
C154        C  0.02736659  0.28892307  0.32235209     0.83300
C155        C  0.02048807  0.28079109  0.24756239     0.83000
O156        O  0.98084765  0.30312009  0.29341799    -0.78200
C157        C  0.97285536  0.23496940  0.25108719     0.83800
O158        O  0.02341534  0.29470893  0.30572868    -0.78300
C159        C  0.03298812  0.22140251  0.29884940     0.83900
C160        C  0.96697171  0.23476631  0.32360213     0.84200
O161        O  0.98301066  0.24035213  0.32977493    -0.80700
O162        O  0.79889424  0.02553987  0.29528968    -0.78200
C163        C  0.75665059  0.98014271  0.27590800     0.82800
O164        O  0.83560501  0.98572824  0.26639078    -0.79300
O165        O  0.78824719  0.97593061  0.21784076    -0.80800
O166        O  0.76435409  0.03945697  0.23979742    -0.80600
O167        O  0.79742208  0.04903561  0.27461511    -0.79200
Zn168      Zn  0.79299015  0.00213460  0.27993593     1.55700
O169        O  0.75658790  0.01158434  0.22718928    -0.80600
Cd170      Cd  0.79140382  0.03433041  0.24992899     1.59700
Cd171      Cd  0.82104968  0.99984825  0.24488249     1.59600
O172        O  0.81093977  0.04376239  0.23063960    -0.80600
O173        O  0.79527830  0.00697188  0.25345988    -1.91100
Cd174      Cd  0.77573264  0.99268515  0.23907490     1.59900
O175        O  0.83464390  0.02297960  0.23266614    -0.80600
O176        O  0.75944862  0.97717169  0.25826653    -0.79200
C177        C  0.82891348  0.97905193  0.28182711     0.83300
C178        C  0.80064723  0.04298966  0.29127338     0.83000
O179        O  0.76735275  0.99100332  0.28556029    -0.78200
C180        C  0.75315494  0.02901570  0.23024268     0.83800
O181        O  0.81245570  0.98341087  0.28768573    -0.78300
C182        C  0.82767753  0.03846031  0.22658697     0.83900
C183        C  0.80564375  0.97319032  0.21356553     0.84200
O184        O  0.81881235  0.98097464  0.22296669    -0.80700
O185        O  0.71365920  0.77203607  0.48735000    -0.78200
C186        C  0.70844088  0.80204259  0.54154662     0.82800
O187        O  0.73197919  0.84064254  0.48619913    -0.79300
O188        O  0.76935497  0.81397011  0.54163512    -0.80800
O189        O  0.77515211  0.76287241  0.50819691    -0.80600
O190        O  0.74142999  0.76227443  0.47617374    -0.79200
Zn191      Zn  0.71908329  0.79701724  0.49988482     1.55700
O192        O  0.76136750  0.76822628  0.53617655    -0.80600
Cd193      Cd  0.76045001  0.78031658  0.48961754     1.59700
Cd194      Cd  0.75424832  0.82518606  0.49790131     1.59600
O195        O  0.77926743  0.79347692  0.47044553    -0.80600
O196        O  0.74576609  0.79928248  0.50447116    -1.91100
Cd197      Cd  0.74996657  0.79475225  0.53179949     1.59900
O198        O  0.77447166  0.82373356  0.47690886    -0.80600
O199        O  0.72536480  0.79945940  0.54711878    -0.79200
C200        C  0.71637229  0.83456346  0.47941153     0.83300
C201        C  0.72354923  0.76019330  0.47803844     0.83000
O202        O  0.70401493  0.80056927  0.52411918    -0.78200
C203        C  0.77252916  0.75874635  0.52561306     0.83800
O204        O  0.71057753  0.81784287  0.48267282    -0.78300
C205        C  0.78300139  0.81094539  0.46761660     0.83900
C206        C  0.77434041  0.83035633  0.53615263     0.84200
O207        O  0.76821406  0.83757425  0.52076580    -0.80700
C208        C  0.91275238  0.84926724  0.35420585     0.86800
C209        C  0.92583811  0.85902635  0.36862267    -0.53500
C210        C  0.91687835  0.87110361  0.38090688     0.09700
C211        C  0.89526285  0.87206811  0.37765125     0.20700
C212        C  0.89770276  0.83947376  0.36679746    -0.54200
C213        C  0.88858102  0.85139185  0.37899639     0.09800
C214        C  0.90176552  0.86525079  0.34464675    -0.53700
C215        C  0.89289726  0.87728829  0.35669620     0.10400
H216        H  0.94100116  0.85667401  0.36886895     0.14900
H217        H  0.88753525  0.88190570  0.38707682     0.00600
H218        H  0.89401242  0.82467775  0.36633519     0.15200
H219        H  0.90109480  0.86696255  0.32937506     0.15000
C220        C  0.84720531  0.15319800  0.41816099     0.86800
C221        C  0.83848274  0.14129061  0.40205717    -0.53500
C222        C  0.85134391  0.13109288  0.39184524     0.09700
C223        C  0.87197159  0.13396712  0.39834066     0.20700
C224        C  0.85833319  0.13850224  0.42972243    -0.54200
C225        C  0.87161989  0.12877001  0.41953750     0.09800
C226        C  0.86217039  0.16529114  0.40817399    -0.53700
C227        C  0.87527578  0.15548173  0.39806029     0.10400
H228        H  0.82352897  0.13996846  0.39917258     0.14900
H229        H  0.88241257  0.12574423  0.38997363     0.00600
H230        H  0.85597285  0.13603604  0.44470651     0.15200
H231        H  0.86215933  0.18059872  0.40886940     0.15000
C232        C  0.85217704  0.92431415  0.65572910     0.86800
C233        C  0.86431131  0.90881511  0.66485225    -0.53500
C234        C  0.87607781  0.89982288  0.65243960     0.09700
C235        C  0.87419790  0.90656525  0.63177205     0.20700
C236        C  0.86619902  0.93714553  0.64529903    -0.54200
C237        C  0.87750695  0.92806489  0.63253967     0.09800
C238        C  0.84165552  0.91340395  0.64008171    -0.53700
C239        C  0.85301363  0.90459476  0.62727310     0.10400
H240        H  0.86324699  0.90450587  0.67952042     0.14900
H241        H  0.88354323  0.89903928  0.62162427     0.00600
H242        H  0.86696410  0.95224502  0.64776010     0.15200
H243        H  0.82636201  0.91219968  0.63941557     0.15000
C244        C  0.13964945  0.08844853  0.34303920     0.86800
C245        C  0.12446948  0.07786169  0.35423699    -0.53500
C246        C  0.11331931  0.08903689  0.36539879     0.09700
C247        C  0.11890951  0.11019495  0.36478206     0.20700
C248        C  0.12896955  0.10420206  0.33229528    -0.54200
C249        C  0.11796090  0.11546992  0.34360772     0.09800
C250        C  0.15077886  0.09949346  0.35805103    -0.53700
C251        C  0.14025582  0.11087809  0.36933386     0.10400
H252        H  0.12303156  0.06262095  0.35370948     0.14900
H253        H  0.11011329  0.11936955  0.37400162     0.00600
H254        H  0.13052401  0.10698556  0.31730657     0.15200
H255        H  0.16604059  0.09879297  0.35948251     0.15000
C256        C  0.08636417  0.15652979  0.64552301     0.86800
C257        C  0.10072539  0.16647892  0.63252140    -0.53500
C258        C  0.11055436  0.15465064  0.62079722     0.09700
C259        C  0.10492063  0.13370028  0.62298866     0.20700
C260        C  0.07369182  0.14536902  0.63154714    -0.54200
C261        C  0.08338665  0.13343727  0.61975931     0.09800
C262        C  0.09760070  0.14115460  0.65574354    -0.53700
C263        C  0.10728783  0.12932841  0.64413105     0.10400
H264        H  0.10318446  0.18159065  0.63287891     0.14900
H265        H  0.11292762  0.12383717  0.61378154     0.00600
H266        H  0.05848417  0.14645923  0.63059687     0.15200
H267        H  0.09755344  0.13947443  0.67103500     0.15000
C268        C  0.15322263  0.85693780  0.58368441     0.86800
C269        C  0.14323888  0.87060327  0.57012666    -0.53500
C270        C  0.13149338  0.88325450  0.57881484     0.09700
C271        C  0.13095610  0.88122693  0.60059811     0.20700
C272        C  0.16329245  0.86953110  0.59815118    -0.54200
C273        C  0.15175701  0.88222391  0.60701555     0.09800
C274        C  0.13659625  0.84805401  0.59476798    -0.53700
C275        C  0.12519878  0.86061294  0.60381923     0.10400
H276        H  0.14497627  0.87002525  0.55487876     0.14900
H277        H  0.12161786  0.89148560  0.60792753     0.00600
H278        H  0.17816606  0.86800109  0.60162140     0.15200
H279        H  0.13310315  0.83320385  0.59507583     0.15000
O280        O  0.01231290  0.01830667  0.45674565    -0.78200
C281        C  0.98069219  0.96570272  0.46699610     0.82800
O282        O  0.96475839  0.03726563  0.50013023    -0.79300
O283        O  0.97549667  0.97555606  0.52825437    -0.80800
O284        O  0.04199486  0.98656819  0.51082838    -0.80600
O285        O  0.03729794  0.01943118  0.47575815    -0.79200
Zn286      Zn  0.99103360  0.00740695  0.47265846     1.55700
O287        O  0.01978198  0.96498254  0.51578024    -0.80600
Cd288      Cd  0.02650958  0.00969760  0.50124034     1.59700
Cd289      Cd  0.98383715  0.02119003  0.51601360     1.59600
O290        O  0.03052184  0.03082163  0.52088255    -0.80600
O291        O  0.99888338  0.00404924  0.49884984    -1.91100
Cd292      Cd  0.99490509  0.97721750  0.50642659     1.59900
O293        O  0.00188199  0.03913715  0.53105766    -0.80600
O294        O  0.98483599  0.96134959  0.48397683    -0.79200
C295        C  0.96087950  0.03705225  0.48248911     0.83300
C296        C  0.02966124  0.02225539  0.45968587     0.83000
O297        O  0.98237031  0.98261711  0.46102069    -0.78200
C298        C  0.03698852  0.97022880  0.51657657     0.83800
O299        O  0.96958921  0.02602818  0.47119070    -0.78300
C300        C  0.01988219  0.04078041  0.53145163     0.83900
C301        C  0.96665071  0.98757817  0.53835689     0.84200
O302        O  0.96839267  0.00530531  0.53563960    -0.80700
O303        O  0.70546190  0.29954556  0.48803202    -0.78200
C304        C  0.73050513  0.25705744  0.53011269     0.82800
O305        O  0.73537183  0.33664104  0.52857936    -0.79300
O306        O  0.78622008  0.29296554  0.53407982    -0.80800
O307        O  0.76453068  0.27107003  0.46930306    -0.80600
O308        O  0.72477030  0.29937303  0.46330667    -0.79200
Zn309      Zn  0.72264501  0.29453442  0.51064620     1.55700
O310        O  0.77790135  0.26305925  0.49677557    -0.80600
Cd311      Cd  0.75091209  0.29610669  0.47637100     1.59700
Cd312      Cd  0.75640050  0.32441305  0.51210353     1.59600
O313        O  0.76659590  0.31826348  0.46629755    -0.80600
O314        O  0.74873886  0.29861194  0.50427923    -1.91100
Cd315      Cd  0.76522064  0.27978251  0.51721286     1.59900
O316        O  0.76447281  0.34032061  0.48881359    -0.80600
O317        O  0.74816907  0.26054225  0.53181187    -0.79200
C318        C  0.72041876  0.32938854  0.53562106     0.83300
C319        C  0.70826010  0.30152522  0.47030974     0.83000
O320        O  0.71945961  0.26829717  0.52134629    -0.78200
C321        C  0.77530698  0.26042910  0.47908771     0.83800
O322        O  0.71484179  0.31303347  0.53061399    -0.78300
C323        C  0.76938052  0.33498992  0.47225786     0.83900
C324        C  0.79017407  0.31045199  0.53646446     0.84200
O325        O  0.78020570  0.32332151  0.52884860    -0.80700
O326        O  0.01762935  0.71498085  0.70418750    -0.78200
C327        C  0.97052636  0.73372065  0.74303027     0.82800
O328        O  0.97745568  0.74300837  0.66316779    -0.79300
O329        O  0.96532810  0.79065219  0.71244375    -0.80800
O330        O  0.03012836  0.77219995  0.73484223    -0.80600
O331        O  0.04018164  0.73683244  0.70333933    -0.79200
Zn332      Zn  0.99312659  0.72960567  0.70665109     1.55700
O333        O  0.00204544  0.78377792  0.74268554    -0.80600
Cd334      Cd  0.02466732  0.76113109  0.70818487     1.59700
Cd335      Cd  0.98971341  0.76507986  0.67869757     1.59600
O336        O  0.03309224  0.78080570  0.68867710    -0.80600
O337        O  0.99737504  0.75632102  0.70443177    -1.91100
Cd338      Cd  0.98337600  0.77056727  0.72433854     1.59900
O339        O  0.01210871  0.77889965  0.66521382    -0.80600
O340        O  0.96929750  0.75161743  0.74163444    -0.79200
C341        C  0.97277113  0.72650688  0.66882041     0.83300
C342        C  0.03494496  0.71964636  0.70227896     0.83000
O343        O  0.97966326  0.72373767  0.73110762    -0.78200
C344        C  0.01962981  0.78178714  0.74597943     0.83800
O345        O  0.97705478  0.72064210  0.68526940    -0.78300
C346        C  0.02737055  0.78550486  0.67225846     0.83900
C347        C  0.96184615  0.79478075  0.69520205     0.84200
O348        O  0.96963775  0.78594052  0.68154344    -0.80700
C349        C  0.14638884  0.59269766  0.65502192     0.86800
C350        C  0.13468570  0.60784121  0.66538477    -0.53500
C351        C  0.12290363  0.61806729  0.65394343     0.09700
C352        C  0.12396230  0.61215313  0.63293336     0.20700
C353        C  0.13134331  0.58069409  0.64457919    -0.54200
C354        C  0.11970502  0.59090483  0.63307102     0.09800
C355        C  0.15649440  0.60315849  0.63888344    -0.53700
C356        C  0.14490602  0.61319926  0.62732959     0.10400
H357        H  0.13551500  0.61009844  0.68056259     0.14900
H358        H  0.11473506  0.62045452  0.62336825     0.00600
H359        H  0.13030009  0.56549770  0.64492699     0.15200
H360        H  0.17163331  0.60217549  0.63639244     0.15000
C361        C  0.15241208  0.36035677  0.41556460     0.86800
C362        C  0.16274896  0.37213995  0.40050936    -0.53500
C363        C  0.15139039  0.38405393  0.39049933     0.09700
C364        C  0.13039417  0.38316992  0.39658235     0.20700
C365        C  0.14209156  0.37510884  0.42798537    -0.54200
C366        C  0.13055315  0.38698312  0.41805792     0.09800
C367        C  0.13606388  0.35052830  0.40521909    -0.53700
C368        C  0.12481582  0.36224286  0.39497586     0.10400
H369        H  0.17795549  0.37150955  0.39844319     0.14900
H370        H  0.12096953  0.39277508  0.38854520     0.00600
H371        H  0.14243302  0.37554281  0.44329096     0.15200
H372        H  0.13344137  0.33544852  0.40607697     0.15000
C373        C  0.84536536  0.65141459  0.58582059     0.86800
C374        C  0.85484876  0.63620410  0.57327370    -0.53500
C375        C  0.86655276  0.62425748  0.58294415     0.09700
C376        C  0.86768665  0.62846438  0.60430454     0.20700
C377        C  0.83542154  0.64004117  0.60146594    -0.54200
C378        C  0.84697824  0.62813638  0.61133438     0.09800
C379        C  0.86229546  0.66104465  0.59533208    -0.53700
C380        C  0.87378762  0.64924796  0.60514230     0.10400
H381        H  0.85412687  0.63568389  0.55799753     0.14900
H382        H  0.87730399  0.61888853  0.61214558     0.00600
H383        H  0.82031650  0.64098813  0.60405285     0.15200
H384        H  0.86527109  0.67602953  0.59400039     0.15000
C385        C  0.85408134  0.42294045  0.35238080     0.86800
C386        C  0.86784398  0.43478087  0.36453405    -0.53500
C387        C  0.87829489  0.42452726  0.37723886     0.09700
C388        C  0.87393187  0.40319883  0.37655015     0.20700
C389        C  0.86677332  0.40798789  0.34323819    -0.54200
C390        C  0.87730503  0.39751458  0.35561518     0.09800
C391        C  0.84220776  0.41248190  0.36702666    -0.53700
C392        C  0.85226715  0.40223191  0.37963943     0.10400
H393        H  0.86920541  0.44993828  0.36381769     0.14900
H394        H  0.88241341  0.39491952  0.38665141     0.00600
H395        H  0.86744394  0.40604965  0.32800425     0.15200
H396        H  0.82688861  0.41360102  0.36778817     0.15000
C397        C  0.91867835  0.35552978  0.64556809     0.86800
C398        C  0.90532280  0.34642667  0.63079006    -0.53500
C399        C  0.89656155  0.35910577  0.61913426     0.09700
C400        C  0.90191953  0.37978705  0.62320256     0.20700
C401        C  0.93237666  0.36746761  0.63344172    -0.54200
C402        C  0.92373921  0.38032333  0.62181903     0.09800
C403        C  0.90586310  0.36973429  0.65576188    -0.53700
C404        C  0.89749191  0.38259257  0.64429434     0.10400
H405        H  0.90214286  0.33154264  0.62973611     0.14900
H406        H  0.89458532  0.39011652  0.61397858     0.00600
H407        H  0.94756168  0.36536509  0.63369158     0.15200
H408        H  0.90368916  0.36975120  0.67099496     0.15000
C409        C  0.08092113  0.66629863  0.35055289     0.86800
C410        C  0.06962757  0.65450200  0.36493143    -0.53500
C411        C  0.08032196  0.64216892  0.37526377     0.09700
C412        C  0.10159112  0.64296194  0.37035927     0.20700
C413        C  0.09631579  0.67603640  0.36264781    -0.54200
C414        C  0.10717196  0.66381556  0.37291189     0.09800
C415        C  0.09212978  0.65205459  0.33872427    -0.53700
C416        C  0.10255040  0.63954880  0.34886610     0.10400
H417        H  0.05452007  0.65621151  0.36704162     0.14900
H418        H  0.11045915  0.63317902  0.37876844     0.00600
H419        H  0.09898232  0.69105544  0.36313363     0.15200
H420        H  0.09168486  0.65179773  0.32335495     0.15000
O421        O  0.01753573  0.55448772  0.48446643    -0.78200
C422        C  0.96427015  0.54457141  0.51626254     0.82800
O423        O  0.03484563  0.51234135  0.53390666    -0.79300
O424        O  0.97364304  0.48421569  0.52308150    -0.80800
O425        O  0.98636508  0.50004661  0.45634250    -0.80600
O426        O  0.02153067  0.53413111  0.46077611    -0.79200
Zn427      Zn  0.00581125  0.53910266  0.50563678     1.55700
O428        O  0.96459095  0.49517370  0.47868200    -0.80600
Cd429      Cd  0.00976859  0.50935611  0.47168209     1.59700
Cd430      Cd  0.01956908  0.49553907  0.51497397     1.59600
O431        O  0.03001691  0.48859597  0.46863903    -0.80600
O432        O  0.00315881  0.51254224  0.49901052    -1.91100
Cd433      Cd  0.97632209  0.50519837  0.50316237     1.59900
O434        O  0.03775565  0.47944110  0.49775308    -0.80600
O435        O  0.96032450  0.52743401  0.51265071    -0.79200
C436        C  0.03408090  0.53008029  0.53714282     0.83300
C437        C  0.02354367  0.55056211  0.46791644     0.83000
O438        O  0.98093747  0.55105822  0.51390032    -0.78200
C439        C  0.97009972  0.49412028  0.46155457     0.83800
O440        O  0.02361928  0.54089918  0.52738043    -0.78300
C441        C  0.03976908  0.47839870  0.47977273     0.83900
C442        C  0.98523604  0.47433147  0.53259109     0.84200
O443        O  0.00308605  0.47674254  0.53107951    -0.80700
C444        C  0.65639250  0.36690396  0.07884150     0.86800
C445        C  0.64429812  0.38140554  0.06809885    -0.53500
C446        C  0.63197555  0.39131639  0.07925719     0.09700
C447        C  0.63335675  0.38636986  0.10048993     0.20700
C448        C  0.66641710  0.37892062  0.09410263    -0.54200
C449        C  0.65446355  0.38915625  0.10538876     0.09800
C450        C  0.64227722  0.35493076  0.09018646    -0.53700
C451        C  0.63018473  0.36486007  0.10137475     0.10400
H452        H  0.64522042  0.38348137  0.05289632     0.14900
H453        H  0.62350044  0.39450922  0.10960259     0.00600
H454        H  0.68153377  0.37969539  0.09618600     0.15200
H455        H  0.64166003  0.33964529  0.08915482     0.15000
C456        C  0.58772267  0.65441256  0.14884902     0.86800
C457        C  0.60258748  0.66498601  0.13711829    -0.53500
C458        C  0.61228956  0.65398845  0.12459714     0.09700
C459        C  0.60642340  0.63298607  0.12504724     0.20700
C460        C  0.57519338  0.64409803  0.13433071    -0.54200
C461        C  0.58481964  0.63287708  0.12176123     0.09800
C462        C  0.59889437  0.63831913  0.15818933    -0.53700
C463        C  0.60840375  0.62708389  0.14589661     0.10400
H464        H  0.60528520  0.67999770  0.13866218     0.14900
H465        H  0.61466157  0.62417222  0.11504024     0.00600
H466        H  0.55988588  0.64529079  0.13431616     0.15200
H467        H  0.59894764  0.63478640  0.17303988     0.15000
C468        C  0.41496607  0.35266146  0.85333510     0.86800
C469        C  0.42862203  0.36268872  0.86724181    -0.53500
C470        C  0.41997639  0.37532323  0.87918526     0.09700
C471        C  0.39841505  0.37690436  0.87594622     0.20700
C472        C  0.39993574  0.34394234  0.86637753    -0.54200
C473        C  0.39101605  0.35650157  0.87799033     0.09800
C474        C  0.40514680  0.36900315  0.84321230    -0.53700
C475        C  0.39632764  0.38161384  0.85475991     0.10400
H476        H  0.44370902  0.36035049  0.86793830     0.14900
H477        H  0.39121929  0.38715500  0.88535303     0.00600
H478        H  0.39658910  0.32898293  0.86637993     0.15200
H479        H  0.40498053  0.37033660  0.82788803     0.15000
C480        C  0.34081810  0.64849162  0.91325045     0.86800
C481        C  0.33223608  0.63530664  0.89807591    -0.53500
C482        C  0.34525141  0.62421900  0.88903328     0.09700
C483        C  0.36565894  0.62731138  0.89587926     0.20700
C484        C  0.35176227  0.63514626  0.92640771    -0.54200
C485        C  0.36481945  0.62414808  0.91739119     0.09800
C486        C  0.35603789  0.65947801  0.90234629    -0.53700
C487        C  0.36927216  0.64855019  0.89365878     0.10400
H488        H  0.31746932  0.63467970  0.89419511     0.14900
H489        H  0.37629013  0.61842348  0.88852882     0.00600
H490        H  0.34999652  0.63520389  0.94167028     0.15200
H491        H  0.35676037  0.67479073  0.90218900     0.15000
C492        C  0.64439019  0.59016881  0.84700203     0.86800
C493        C  0.63087245  0.57815196  0.85910842    -0.53500
C494        C  0.62044335  0.58813834  0.87198967     0.09700
C495        C  0.62412436  0.60958389  0.87125579     0.20700
C496        C  0.63128243  0.60497526  0.83778588    -0.54200
C497        C  0.62063278  0.61511591  0.85041217     0.09800
C498        C  0.65599523  0.60175569  0.86112490    -0.53700
C499        C  0.64566232  0.61163805  0.87401937     0.10400
H500        H  0.62978183  0.56293516  0.85768466     0.14900
H501        H  0.61556634  0.61777545  0.88152640     0.00600
H502        H  0.63028135  0.60770544  0.82277099     0.15200
H503        H  0.67136496  0.60171634  0.86123480     0.15000
C504        C  0.35219554  0.42262827  0.15498598     0.86800
C505        C  0.36498480  0.40727555  0.16361300    -0.53500
C506        C  0.37507552  0.39724471  0.15048934     0.09700
C507        C  0.37173956  0.40364016  0.12987389     0.20700
C508        C  0.36611764  0.43473043  0.14336827    -0.54200
C509        C  0.37599439  0.42496113  0.12989676     0.09800
C510        C  0.34022827  0.41198801  0.14052899    -0.53700
C511        C  0.35014455  0.40229832  0.12721523     0.10400
H512        H  0.36656419  0.40453313  0.17859613     0.14900
H513        H  0.38016140  0.39576803  0.11923412     0.00600
H514        H  0.36778265  0.44982160  0.14540776     0.15200
H515        H  0.32486160  0.41250715  0.14059174     0.15000
O516        O  0.47633998  0.54619735  0.98382769    -0.78200
C517        C  0.51298885  0.54779069  0.03327412     0.82800
O518        O  0.52970327  0.50856768  0.96582495    -0.79300
O519        O  0.52542460  0.48831467  0.03154732    -0.80800
O520        O  0.45750442  0.49190690  0.02069333    -0.80600
O521        O  0.45550638  0.52262821  0.98414767    -0.79200
Zn522      Zn  0.50063966  0.53519342  0.99372225     1.55700
O523        O  0.48018001  0.49430927  0.04243829    -0.80600
Cd524      Cd  0.47066891  0.50076226  0.99590750     1.59700
Cd525      Cd  0.51478439  0.49215154  0.98521914     1.59600
O526        O  0.46967401  0.47873633  0.97675905    -0.80600
O527        O  0.49733963  0.50877291  0.00047696    -1.91100
Cd528      Cd  0.50278541  0.50597526  0.02796624     1.59900
O529        O  0.49959785  0.47201816  0.96967279    -0.80600
O530        O  0.51026223  0.53145588  0.04028409    -0.79200
C531        C  0.52952822  0.52629543  0.96268366     0.83300
C532        C  0.45996438  0.53959869  0.98024971     0.83000
O533        O  0.51004668  0.55103644  0.01577181    -0.78200
C534        C  0.46340875  0.48985395  0.03760739     0.83800
O535        O  0.51942526  0.53747003  0.97251836    -0.78300
C536        C  0.48189522  0.46898212  0.96777584     0.83900
C537        C  0.53635837  0.47884787  0.02088787     0.84200
O538        O  0.53417298  0.47868725  0.00292901    -0.80700
O539        O  0.29832376  0.48415942  0.70130117    -0.78200
C540        C  0.25585821  0.52816006  0.72152193     0.82800
O541        O  0.33717051  0.52299562  0.72922611    -0.79300
O542        O  0.28922611  0.53551668  0.77694940    -0.80800
O543        O  0.26577270  0.47018204  0.75776045    -0.80600
O544        O  0.29961724  0.46117050  0.72269764    -0.79200
Zn545      Zn  0.29372092  0.50805935  0.71624764     1.55700
O546        O  0.25987969  0.49732116  0.77272580    -0.80600
Cd547      Cd  0.29289170  0.47578748  0.74739119     1.59700
Cd548      Cd  0.32207991  0.51056991  0.75137669     1.59600
O549        O  0.31179711  0.46776094  0.76810155    -0.80600
O550        O  0.29630474  0.50310375  0.74293022    -1.91100
Cd551      Cd  0.27671647  0.51652337  0.75799191     1.59900
O552        O  0.33549503  0.48841777  0.76533783    -0.80600
O553        O  0.25808675  0.52952083  0.73940732    -0.79200
C554        C  0.33116272  0.52915564  0.71334284     0.83300
C555        C  0.30149039  0.46700872  0.70570016     0.83000
O556        O  0.26797440  0.51977947  0.71101152    -0.78200
C557        C  0.25589081  0.48011384  0.76918505     0.83800
O558        O  0.31449836  0.52558346  0.70746068    -0.78300
C559        C  0.32826316  0.47356950  0.77262924     0.83900
C560        C  0.30649756  0.53920153  0.78075217     0.84200
O561        O  0.31991846  0.53102487  0.77193640    -0.80700
C562        C  0.65195555  0.65440366  0.41329755     0.86800
C563        C  0.64256819  0.63895279  0.42568226    -0.53500
C564        C  0.63031571  0.62757681  0.41604483     0.09700
C565        C  0.62848391  0.63242743  0.39492126     0.20700
C566        C  0.66106343  0.64350254  0.39683802    -0.54200
C567        C  0.64889037  0.63204930  0.38720078     0.09800
C568        C  0.63495114  0.66466534  0.40462353    -0.53700
C569        C  0.62277854  0.65336198  0.39490503     0.10400
H570        H  0.64388479  0.63774321  0.44088408     0.14900
H571        H  0.61851183  0.62313755  0.38712911     0.00600
H572        H  0.67600090  0.64448222  0.39334802     0.15200
H573        H  0.63286797  0.67979435  0.40580936     0.15000
C574        C  0.64220900  0.42520668  0.65608279     0.86800
C575        C  0.62906108  0.43724353  0.64376665    -0.53500
C576        C  0.61830088  0.42719768  0.63124415     0.09700
C577        C  0.62157965  0.40566487  0.63236386     0.20700
C578        C  0.62882887  0.41081685  0.66570917    -0.54200
C579        C  0.61807866  0.40063368  0.65328959     0.09800
C580        C  0.65357169  0.41305458  0.64217674    -0.53700
C581        C  0.64299613  0.40302882  0.62964725     0.10400
H582        H  0.62856477  0.45252772  0.64467874     0.14900
H583        H  0.61303695  0.39719748  0.62230645     0.00600
H584        H  0.62815124  0.40798855  0.68073647     0.15200
H585        H  0.66892585  0.41237722  0.64230662     0.15000
C586        C  0.41547480  0.66172619  0.64517826     0.86800
C587        C  0.42888556  0.65155368  0.63109229    -0.53500
C588        C  0.41990677  0.63932228  0.61904470     0.09700
C589        C  0.39822317  0.63891729  0.62160729     0.20700
C590        C  0.40096503  0.67148604  0.63246162    -0.54200
C591        C  0.39188149  0.65979210  0.62021978     0.09800
C592        C  0.40484719  0.64533112  0.65470598    -0.53700
C593        C  0.39573409  0.63342981  0.64258871     0.10400
H594        H  0.44411186  0.65291205  0.63083799     0.14900
H595        H  0.39087061  0.62924692  0.61167511     0.00600
H596        H  0.39795125  0.68649044  0.63322029     0.15200
H597        H  0.40517704  0.64288709  0.66988548     0.15000
C598        C  0.35597788  0.59243146  0.34161752     0.86800
C599        C  0.36695856  0.60872158  0.33204724    -0.53500
C600        C  0.37756056  0.61939791  0.34417815     0.09700
C601        C  0.37642887  0.61265693  0.36498992     0.20700
C602        C  0.37162269  0.58124455  0.35170555    -0.54200
C603        C  0.38219636  0.59161292  0.36418138     0.09800
C604        C  0.34470758  0.60197945  0.35739537    -0.53700
C605        C  0.35509993  0.61240573  0.36968761     0.10400
H606        H  0.36722931  0.61149973  0.31699731     0.14900
H607        H  0.38491032  0.62122790  0.37501024     0.00600
H608        H  0.37388493  0.56626085  0.34950453     0.15200
H609        H  0.32944967  0.60055864  0.35875111     0.15000
C610        C  0.58472141  0.34911548  0.35456508     0.86800
C611        C  0.59978457  0.33925781  0.36696196    -0.53500
C612        C  0.60967606  0.35119926  0.37862703     0.09700
C613        C  0.60343994  0.37202701  0.37681466     0.20700
C614        C  0.57230141  0.35956237  0.36900045    -0.54200
C615        C  0.58192390  0.37166337  0.38052050     0.09800
C616        C  0.59588838  0.36443956  0.34418552    -0.53700
C617        C  0.60550350  0.37656397  0.35554677     0.10400
H618        H  0.60256301  0.32427043  0.36699779     0.14900
H619        H  0.61111275  0.38195864  0.38618192     0.00600
H620        H  0.55704871  0.35786518  0.36974530     0.15200
H621        H  0.59614694  0.36561235  0.32884374     0.15000
C622        C  0.34599277  0.35721390  0.57722873     0.86800
C623        C  0.33675186  0.36992014  0.59209273    -0.53500
C624        C  0.34895404  0.38181599  0.60112713     0.09700
C625        C  0.36949938  0.38042424  0.59391057     0.20700
C626        C  0.35624182  0.37078611  0.56351783    -0.54200
C627        C  0.36844849  0.38307885  0.57227028     0.09800
C628        C  0.36263252  0.34764193  0.58748829    -0.53700
C629        C  0.37483210  0.35961826  0.59622644     0.10400
H630        H  0.32173628  0.36937525  0.59530771     0.14900
H631        H  0.37946226  0.39026108  0.60097952     0.00600
H632        H  0.35505067  0.36979349  0.54824134     0.15200
H633        H  0.36568538  0.33269298  0.58686767     0.15000
O634        O  0.48030896  0.46702509  0.51209211    -0.78200
C635        C  0.51919590  0.46909350  0.46388595     0.82800
O636        O  0.53248054  0.50709041  0.53181960    -0.79300
O637        O  0.52824809  0.52929327  0.46768745    -0.80800
O638        O  0.46122718  0.52404986  0.47621703    -0.80600
O639        O  0.45791303  0.48882326  0.50889447    -0.79200
Zn640      Zn  0.50465803  0.47967058  0.50344330     1.55700
O641        O  0.48414111  0.52221697  0.45475937    -0.80600
Cd642      Cd  0.47290926  0.51247777  0.50053869     1.59700
Cd643      Cd  0.51573202  0.52324947  0.51368532     1.59600
O644        O  0.46958181  0.53272750  0.52131655    -0.80600
O645        O  0.50015232  0.50609195  0.49705288    -1.91100
Cd646      Cd  0.50648040  0.51018279  0.46974065     1.59900
O647        O  0.49848682  0.54125178  0.52997265    -0.80600
O648        O  0.51592680  0.48543223  0.45710249    -0.79200
C649        C  0.53395778  0.48928793  0.53410219     0.83300
C650        C  0.46307891  0.47222344  0.51345648     0.83000
O651        O  0.51530453  0.46511496  0.48106358    -0.78200
C652        C  0.46750712  0.52730726  0.45961572     0.83800
O653        O  0.52411756  0.47775498  0.52434241    -0.78300
C654        C  0.48051371  0.54295312  0.53126715     0.83900
C655        C  0.53716659  0.53989664  0.47918242     0.84200
O656        O  0.53379317  0.53960552  0.49694493    -0.80700
O657        O  0.48153740  0.72199014  0.76785135    -0.78200
C658        C  0.53490467  0.71846317  0.80102891     0.82800
O659        O  0.47496240  0.74075673  0.83576308    -0.79300
O660        O  0.53134780  0.77939594  0.81293252    -0.80800
O661        O  0.50147129  0.78204495  0.75875991    -0.80600
O662        O  0.46872389  0.74939954  0.75928816    -0.79200
Zn663      Zn  0.49321182  0.72744815  0.79351790     1.55700
O664        O  0.52998833  0.77164138  0.76714675    -0.80600
Cd665      Cd  0.48282712  0.76823691  0.77660142     1.59700
Cd666      Cd  0.48887440  0.76248921  0.82186172     1.59600
O667        O  0.46500894  0.78828441  0.78862730    -0.80600
O668        O  0.49695723  0.75412131  0.79624205    -1.91100
Cd669      Cd  0.52416364  0.75957766  0.79321263     1.59900
O670        O  0.47006165  0.78451611  0.81942695    -0.80600
O671        O  0.54001128  0.73560185  0.79897632    -0.79200
C672        C  0.46994313  0.72454534  0.82971428     0.83300
C673        C  0.47128017  0.73176180  0.75668381     0.83000
O674        O  0.51777868  0.71343754  0.79829622    -0.78200
C675        C  0.51926924  0.78100570  0.75610316     0.83800
O676        O  0.47534067  0.71824352  0.81369895    -0.78300
C677        C  0.46220509  0.79320823  0.80576775     0.83900
C678        C  0.52574120  0.78233584  0.82978980     0.84200
O679        O  0.51126247  0.77416834  0.83683400    -0.80700
O680        O  0.26291473  0.99216422  0.21636578    -0.78200
C681        C  0.29394923  0.04569919  0.21111213     0.82800
O682        O  0.33179683  0.98968859  0.23265344    -0.79300
O683        O  0.30739864  0.04532895  0.27151019    -0.80800
O684        O  0.25351327  0.01209858  0.27671184    -0.80600
O685        O  0.25422050  0.97986641  0.24419900    -0.79200
Zn686      Zn  0.28800375  0.00439928  0.22176845     1.55700
O687        O  0.26046037  0.04047099  0.26488420    -0.80600
Cd688      Cd  0.27199819  0.99384722  0.26300605     1.59700
Cd689      Cd  0.31722995  0.00150701  0.25579168     1.59600
O690        O  0.28528732  0.97553201  0.28238532    -0.80600
O691        O  0.29104883  0.00871033  0.24834882    -1.91100
Cd692      Cd  0.28703295  0.03606354  0.25287025     1.59900
O693        O  0.31577956  0.98096146  0.27655195    -0.80600
O694        O  0.29143953  0.05151557  0.22802775    -0.79200
C695        C  0.32505816  0.98370129  0.21698287     0.83300
C696        C  0.25171836  0.98224841  0.22646429     0.83000
O697        O  0.29232148  0.02829929  0.20691642    -0.78200
C698        C  0.24983801  0.02962405  0.27471158     0.83800
O699        O  0.30806852  0.98727251  0.21234894    -0.78300
C700        C  0.30278881  0.97240015  0.28574512     0.83900
C701        C  0.32420093  0.03995037  0.27512123     0.84200
O702        O  0.33079743  0.02438426  0.26874699    -0.80700
O703        O  0.20894643  0.80257633  0.97852907    -0.78200
C704        C  0.22692940  0.75928165  0.02139670     0.82800
O705        O  0.23992433  0.83821226  0.01999522    -0.79300
O706        O  0.28550461  0.78771692  0.02807553    -0.80800
O707        O  0.26380544  0.76975151  0.96248169    -0.80600
O708        O  0.22916575  0.80249477  0.95453795    -0.79200
Zn709      Zn  0.22444330  0.79685527  0.00165386     1.55700
O710        O  0.27479169  0.75936874  0.99021007    -0.80600
Cd711      Cd  0.25419046  0.79650509  0.96893532     1.59700
Cd712      Cd  0.26112093  0.82337728  0.00557254     1.59600
O713        O  0.27414897  0.81585460  0.96028256    -0.80600
O714        O  0.25095238  0.79872244  0.99673713    -1.91100
Cd715      Cd  0.26405641  0.77778371  0.01018273     1.59900
O716        O  0.27430592  0.83754546  0.98319771    -0.80600
O717        O  0.24455282  0.76126011  0.02467390    -0.79200
C718        C  0.22382471  0.83222723  0.02576423     0.83300
C719        C  0.21243709  0.80460689  0.96095778     0.83000
O720        O  0.21771172  0.77108935  0.01147168    -0.78200
C721        C  0.27236520  0.75742526  0.97241756     0.83800
O722        O  0.21737527  0.81622144  0.02077752    -0.78300
C723        C  0.27981317  0.83156588  0.96702190     0.83900
C724        C  0.29072998  0.80454679  0.03190954     0.84200
O725        O  0.28270268  0.81892852  0.02474195    -0.80700
C726        C  0.35483522  0.92472288  0.84806767     0.86800
C727        C  0.36888002  0.93782465  0.85813641    -0.53500
C728        C  0.38172157  0.92865363  0.86925541     0.09700
C729        C  0.37977070  0.90702529  0.86892473     0.20700
C730        C  0.36707172  0.91061116  0.83703165    -0.54200
C731        C  0.38015567  0.90142880  0.84780616     0.09800
C732        C  0.34632940  0.91239966  0.86397912    -0.53700
C733        C  0.35923415  0.90350879  0.87507448     0.10400
H734        H  0.36821745  0.95309649  0.85715579     0.14900
H735        H  0.39029770  0.89959276  0.87785416     0.00600
H736        H  0.36518970  0.90761764  0.82209149     0.15200
H737        H  0.33136175  0.91015505  0.86636992     0.15000
C738        C  0.64725554  0.85885251  0.91839417     0.86800
C739        C  0.65789881  0.87118421  0.90405147    -0.53500
C740        C  0.64674200  0.88351285  0.89432409     0.09700
C741        C  0.62562641  0.88222592  0.89959365     0.20700
C742        C  0.63655804  0.87316943  0.93099944    -0.54200
C743        C  0.62511627  0.88520315  0.92117246     0.09800
C744        C  0.63142752  0.84931899  0.90709489    -0.53700
C745        C  0.62034685  0.86133615  0.89697835     0.10400
H746        H  0.67302388  0.87003270  0.90162428     0.14900
H747        H  0.61651769  0.89209789  0.89152634     0.00600
H748        H  0.63730587  0.87391136  0.94625738     0.15200
H749        H  0.62924874  0.83414175  0.90694980     0.15000
C750        C  0.41172261  0.85737581  0.14582320     0.86800
C751        C  0.39797314  0.84697204  0.13261858    -0.53500
C752        C  0.38932448  0.85813167  0.11936973     0.09700
C753        C  0.39511131  0.87916734  0.12093083     0.20700
C754        C  0.42542338  0.86786895  0.13262139    -0.54200
C755        C  0.41685051  0.87943964  0.11982639     0.09800
C756        C  0.39940940  0.87316088  0.15446061    -0.53700
C757        C  0.39077924  0.88445068  0.14158164     0.10400
H758        H  0.39516348  0.83196074  0.13385752     0.14900
H759        H  0.38846885  0.88863796  0.11039470     0.00600
H760        H  0.44068741  0.86655861  0.13362828     0.15200
H761        H  0.39719144  0.87582280  0.16933191     0.15000
C762        C  0.34431843  0.15624237  0.08582283     0.86800
C763        C  0.35429133  0.14098821  0.07362123    -0.53500
C764        C  0.36665833  0.12984284  0.08349976     0.09700
C765        C  0.36793428  0.13488960  0.10464252     0.20700
C766        C  0.33513904  0.14516016  0.10200003    -0.54200
C767        C  0.34729214  0.13413916  0.11198687     0.09800
C768        C  0.36091677  0.16691765  0.09478386    -0.53700
C769        C  0.37353028  0.15591062  0.10425640     0.10400
H770        H  0.35309399  0.13968951  0.05841611     0.14900
H771        H  0.37794324  0.12587858  0.11263734     0.00600
H772        H  0.32008303  0.14567402  0.10506154     0.15200
H773        H  0.36267177  0.18206891  0.09341116     0.15000
C774        C  0.58107661  0.16125531  0.84928047     0.86800
C775        C  0.56750820  0.15020618  0.86234039    -0.53500
C776        C  0.57644124  0.13863110  0.87502947     0.09700
C777        C  0.59818473  0.13920561  0.87350852     0.20700
C778        C  0.59463536  0.17159206  0.86265093    -0.54200
C779        C  0.60344056  0.16020576  0.87546239     0.09800
C780        C  0.59303185  0.14542683  0.84025428    -0.53700
C781        C  0.60234610  0.13430144  0.85277783     0.10400
H782        H  0.55224254  0.15133338  0.86154638     0.14900
H783        H  0.60553297  0.12982391  0.88369579     0.00600
H784        H  0.59743566  0.18662292  0.86163799     0.15200
H785        H  0.59331487  0.14205607  0.82530476     0.15000
C786        C  0.64534073  0.08939329  0.16039747     0.86800
C787        C  0.63258498  0.10496008  0.16843358    -0.53500
C788        C  0.62301246  0.11508302  0.15511719     0.09700
C789        C  0.62659642  0.10825470  0.13467866     0.20700
C790        C  0.63167229  0.07713950  0.14849017    -0.54200
C791        C  0.62192963  0.08704281  0.13511233     0.09800
C792        C  0.65783709  0.09906822  0.14538922    -0.53700
C793        C  0.64823214  0.10912670  0.13205737     0.10400
H794        H  0.63125467  0.10777272  0.18349066     0.14900
H795        H  0.61849161  0.11616262  0.12383653     0.00600
H796        H  0.62972502  0.06207130  0.14987822     0.15200
H797        H  0.67310418  0.09749527  0.14507987     0.15000
O798        O  0.48373372  0.99597794  0.96057344    -0.78200
C799        C  0.51810862  0.04761884  0.96790626     0.82800
O800        O  0.53511040  0.97929945  0.00170763    -0.79300
O801        O  0.52356884  0.04065841  0.02945343    -0.80800
O802        O  0.45745620  0.02886239  0.01523654    -0.80600
O803        O  0.46006462  0.99494048  0.98129414    -0.79200
Zn804      Zn  0.50587625  0.00691936  0.97505504     1.55700
O805        O  0.47957259  0.05114906  0.01775422    -0.80600
Cd806      Cd  0.47238290  0.00548338  0.00564622     1.59700
Cd807      Cd  0.51599397  0.99482757  0.01821418     1.59600
O808        O  0.46957957  0.98450682  0.02557145    -0.80600
O809        O  0.49975822  0.01123143  0.00152064    -1.91100
Cd810      Cd  0.50407580  0.03832610  0.00794736     1.59900
O811        O  0.49890777  0.97592834  0.03323221    -0.80600
O812        O  0.51439051  0.05299107  0.98473189    -0.79200
C813        C  0.53725183  0.97850653  0.98377199     0.83300
C814        C  0.46674470  0.99167766  0.96486221     0.83000
O815        O  0.51504620  0.03075291  0.96249812    -0.78200
C816        C  0.46252466  0.04556163  0.01965787     0.83800
O817        O  0.52695885  0.98828556  0.97276744    -0.78300
C818        C  0.48099447  0.97398791  0.03464345     0.83900
C819        C  0.53247840  0.02918827  0.04001242     0.84200
O820        O  0.53110545  0.01134557  0.03767120    -0.80700
O821        O  0.97987577  0.79189898  0.22958545    -0.78200
C822        C  0.03475094  0.79735228  0.19906958     0.82800
O823        O  0.98066005  0.77549031  0.15990501    -0.79300
O824        O  0.03461497  0.73612262  0.18552003    -0.80800
O825        O  0.00154080  0.73167964  0.23764357    -0.80600
O826        O  0.96902098  0.76362274  0.23832880    -0.79200
Zn827      Zn  0.99323782  0.78686972  0.20453128     1.55700
O828        O  0.02953675  0.74482678  0.23185590    -0.80600
Cd829      Cd  0.98313129  0.74552481  0.21973704     1.59700
Cd830      Cd  0.99164188  0.75246936  0.17465543     1.59600
O831        O  0.96527904  0.72610475  0.20610515    -0.80600
O832        O  0.99793308  0.76035994  0.20095113    -1.91100
Cd833      Cd  0.02521228  0.75567742  0.20495854     1.59900
O834        O  0.97110859  0.73161714  0.17565258    -0.80600
O835        O  0.04037278  0.78030189  0.19990826    -0.79200
C836        C  0.97488173  0.79143860  0.16607087     0.83300
C837        C  0.97062955  0.78137958  0.24101146     0.83000
O838        O  0.01747004  0.80156959  0.20197008    -0.78200
C839        C  0.01875939  0.73451397  0.24208563     0.83800
O840        O  0.97765531  0.79668177  0.18308991    -0.78300
C841        C  0.96247499  0.72246595  0.18857034     0.83900
C842        C  0.02969877  0.73247092  0.16855930     0.84200
O843        O  0.01472609  0.73948579  0.16132946    -0.80700
O844        O  0.77959186  0.23949891  0.98305461    -0.78200
C845        C  0.78148010  0.20801895  0.03618225     0.82800
O846        O  0.75770720  0.17278577  0.97652382    -0.79300
O847        O  0.72086348  0.19728221  0.03452577    -0.80800
O848        O  0.72173659  0.25305963  0.00040419    -0.80600
O849        O  0.75344218  0.24774876  0.96758159    -0.79200
Zn850      Zn  0.77272676  0.21426697  0.99439579     1.55700
O851        O  0.72985526  0.24437025  0.02965486    -0.80600
Cd852      Cd  0.73316391  0.23259180  0.98271375     1.59700
Cd853      Cd  0.73696722  0.18737597  0.99144963     1.59600
O854        O  0.71191141  0.22044822  0.96574387    -0.80600
O855        O  0.74592518  0.21296425  0.99834349    -1.91100
Cd856      Cd  0.74037994  0.21711831  0.02551580     1.59900
O857        O  0.71493765  0.19005063  0.97298696    -0.80600
O858        O  0.76454906  0.21153590  0.04137035    -0.79200
C859        C  0.77389796  0.17841377  0.97080474     0.83300
C860        C  0.77088562  0.25029218  0.97153367     0.83000
O861        O  0.78647612  0.20919757  0.01886642    -0.78200
C862        C  0.72266202  0.25629524  0.01815031     0.83800
O863        O  0.78093976  0.19407822  0.97613280    -0.78300
C864        C  0.70654533  0.20324710  0.96423480     0.83900
C865        C  0.71822628  0.18007585  0.02983434     0.84200
O866        O  0.72557013  0.17325214  0.01478245    -0.80700
O867        O  0.23471241  0.01930046  0.71532277    -0.78200
C868        C  0.20068895  0.96669524  0.71106963     0.82800
O869        O  0.16530472  0.02095887  0.73386678    -0.79300
O870        O  0.19248951  0.96721913  0.77325068    -0.80800
O871        O  0.24361448  0.99890789  0.77582329    -0.80600
O872        O  0.24337939  0.03156502  0.74302416    -0.79200
Zn873      Zn  0.20918905  0.00764081  0.72143990     1.55700
O874        O  0.23752786  0.97128726  0.76188777    -0.80600
Cd875      Cd  0.22585415  0.01760781  0.76197171     1.59700
Cd876      Cd  0.18059882  0.00953085  0.75640417     1.59600
O877        O  0.21304491  0.03640867  0.78088064    -0.80600
O878        O  0.20654917  0.00304242  0.74788094    -1.91100
Cd879      Cd  0.21043391  0.97587397  0.75210108     1.59900
O880        O  0.18231708  0.03038722  0.77658968    -0.80600
O881        O  0.20326920  0.96072119  0.72790432    -0.79200
C882        C  0.17183176  0.02824226  0.71863503     0.83300
C883        C  0.24585386  0.02945439  0.72525969     0.83000
O884        O  0.20378748  0.98386643  0.70677210    -0.78200
C885        C  0.24752915  0.98156591  0.77282442     0.83800
O886        O  0.18887169  0.02543904  0.71342324    -0.78300
C887        C  0.19563301  0.03920619  0.78487867     0.83900
C888        C  0.17595189  0.97240939  0.77815983     0.84200
O889        O  0.16817660  0.98703859  0.77104521    -0.80700
C890        C  0.15677555  0.15420826  0.91089451     0.86800
C891        C  0.14507011  0.14107806  0.92403569    -0.53500
C892        C  0.13312222  0.12913394  0.91462478     0.09700
C893        C  0.13390914  0.13127228  0.89300909     0.20700
C894        C  0.16681775  0.14047356  0.89736137    -0.54200
C895        C  0.15490214  0.12865631  0.88780958     0.09800
C896        C  0.14172495  0.16409015  0.89884489    -0.53700
C897        C  0.12990195  0.15216815  0.88954003     0.10400
H898        H  0.14559690  0.14094365  0.93931853     0.14900
H899        H  0.12403274  0.12183188  0.88529107     0.00600
H900        H  0.18198726  0.14063665  0.89496861     0.15200
H901        H  0.14014366  0.17932290  0.89822264     0.15000
C902        C  0.14638399  0.92286955  0.15078182     0.86800
C903        C  0.13319816  0.93493519  0.13853481    -0.53500
C904        C  0.12227365  0.92513968  0.12579280     0.09700
C905        C  0.12600585  0.90359770  0.12665227     0.20700
C906        C  0.13302982  0.90823810  0.16000191    -0.54200
C907        C  0.12237858  0.89806365  0.14746572     0.09800
C908        C  0.15799732  0.91122358  0.13682180    -0.53700
C909        C  0.14764738  0.90127352  0.12414929     0.10400
H910        H  0.13278698  0.95016730  0.13994515     0.14900
H911        H  0.11734025  0.89521486  0.11687347     0.00600
H912        H  0.13201109  0.90547952  0.17499250     0.15200
H913        H  0.17336966  0.91097539  0.13683145     0.15000
C914        C  0.91018903  0.16205607  0.14531797     0.86800
C915        C  0.92264302  0.15165830  0.13053627    -0.53500
C916        C  0.91297871  0.13924154  0.11909696     0.09700
C917        C  0.89156503  0.13868785  0.12352282     0.20700
C918        C  0.89464399  0.17137787  0.13347651    -0.54200
C919        C  0.88484361  0.15931539  0.12205304     0.09800
C920        C  0.90053182  0.14584469  0.15590941    -0.53700
C921        C  0.89077914  0.13370928  0.14469008     0.10400
H922        H  0.93784156  0.15295456  0.12962728     0.14900
H923        H  0.88304903  0.12914047  0.11458957     0.00600
H924        H  0.89170182  0.18639943  0.13407737     0.15200
H925        H  0.90169805  0.14382729  0.17111046     0.15000
C926        C  0.84908659  0.86311130  0.08351642     0.86800
C927        C  0.83796078  0.87445316  0.09820336    -0.53500
C928        C  0.84843490  0.88749538  0.10771429     0.09700
C929        C  0.86948728  0.88830477  0.10153510     0.20700
C930        C  0.85858568  0.87793586  0.07055703    -0.54200
C931        C  0.86920648  0.89128930  0.07987431     0.09800
C932        C  0.86611563  0.85505251  0.09440467    -0.53700
C933        C  0.87690309  0.86803668  0.10366242     0.10400
H934        H  0.82301989  0.87219341  0.10102513     0.14900
H935        H  0.87819799  0.89871153  0.10932584     0.00600
H936        H  0.85804187  0.87715852  0.05523329     0.15200
H937        H  0.87081490  0.84055605  0.09328501     0.15000
C938        C  0.08369952  0.85405141  0.85263593     0.86800
C939        C  0.09622459  0.84258712  0.86628585    -0.53500
C940        C  0.10544703  0.85325249  0.87957590     0.09700
C941        C  0.10153583  0.87458765  0.87782306     0.20700
C942        C  0.07060225  0.86580715  0.86545250    -0.54200
C943        C  0.07987121  0.87671659  0.87847093     0.09800
C944        C  0.09783947  0.86848119  0.84430059    -0.53700
C945        C  0.10695515  0.87919451  0.85735669     0.10400
H946        H  0.09869235  0.82756200  0.86469075     0.14900
H947        H  0.10911644  0.88339647  0.88838117     0.00600
H948        H  0.05531475  0.86579157  0.86404604     0.15200
H949        H  0.10128591  0.86999294  0.82944614     0.15000
C950        C  0.85235766  0.08824261  0.84480424     0.86800
C951        C  0.86460483  0.10331310  0.83485569    -0.53500
C952        C  0.87453115  0.11460826  0.84696131     0.09700
C953        C  0.87155998  0.10967876  0.86807831     0.20700
C954        C  0.86642290  0.07746397  0.85725982    -0.54200
C955        C  0.87638985  0.08848645  0.86958327     0.09800
C956        C  0.84012507  0.09977363  0.85849263    -0.53700
C957        C  0.84989591  0.11066622  0.87097915     0.10400
H958        H  0.86561089  0.10537889  0.81972735     0.14900
H959        H  0.87986803  0.11863274  0.87789704     0.00600
H960        H  0.86820463  0.06226738  0.85648390     0.15200
H961        H  0.82477416  0.09899478  0.85858614     0.15000
O962        O  0.98710027  0.05415149  0.01327651    -0.78200
C963        C  0.03823235  0.04500879  0.97986764     0.82800
O964        O  0.96890747  0.01078495  0.96376092    -0.79300
O965        O  0.03182447  0.98328365  0.97624804    -0.80800
O966        O  0.01707095  0.00019866  0.04177463    -0.80600
O967        O  0.98405676  0.03418376  0.03720907    -0.79200
Zn968      Zn  0.99708244  0.03845372  0.99137139     1.55700
O969        O  0.04053874  0.99731661  0.02103538    -0.80600
Cd970      Cd  0.99418297  0.00912362  0.02580946     1.59700
Cd971      Cd  0.98531978  0.99483564  0.98244299     1.59600
O972        O  0.97346390  0.98866677  0.02866569    -0.80600
O973        O  0.00121793  0.01218646  0.99853591    -1.91100
Cd974      Cd  0.02861417  0.00550810  0.99534085     1.59900
O975        O  0.96713692  0.97870114  0.99941050    -0.80600
O976        O  0.04349714  0.02849142  0.98467195    -0.79200
C977        C  0.96789503  0.02856572  0.96101247     0.83300
C978        C  0.98227712  0.05071916  0.03030813     0.83000
O979        O  0.02111871  0.05032916  0.98164696    -0.78200
C980        C  0.03411172  0.99585177  0.03789413     0.83800
O981        O  0.97795532  0.04014889  0.97042031    -0.78300
C982        C  0.96452104  0.97792493  0.01729889     0.83900
C983        C  0.02041751  0.97337460  0.96636574     0.84200
O984        O  0.00257214  0.97622978  0.96697075    -0.80700
O985        O  0.21589734  0.27326433  0.98237328    -0.78200
C986        C  0.20881516  0.30534670  0.03586633     0.82800
O987        O  0.23354293  0.34023643  0.97548185    -0.79300
O988        O  0.26861868  0.31965433  0.03551870    -0.80800
O989        O  0.27420608  0.26439510  0.00492257    -0.80600
O990        O  0.24394704  0.26596725  0.96980400    -0.79200
Zn991      Zn  0.22024452  0.29844050  0.99479510     1.55700
O992        O  0.26252947  0.27282810  0.03303361    -0.80600
Cd993      Cd  0.26193964  0.28266640  0.98574631     1.59700
Cd994      Cd  0.25487185  0.32768573  0.99151792     1.59600
O995        O  0.28319538  0.29504878  0.96936571    -0.80600
O996        O  0.24674728  0.30195211  0.99936252    -1.91100
Cd997      Cd  0.25068624  0.29885216  0.02675828     1.59900
O998        O  0.27816274  0.32565471  0.97403258    -0.80600
O999        O  0.22584498  0.30377230  0.04151189    -0.79200
C1000       C  0.21755919  0.33353158  0.97037557     0.83300
C1001       C  0.22620160  0.26307683  0.97160973     0.83000
O1002       O  0.20451187  0.30277392  0.01854153    -0.78200
C1003       C  0.27229680  0.26174332  0.02266733     0.83800
O1004       O  0.21146180  0.31775008  0.97637407    -0.78300
C1005       C  0.28763686  0.31228174  0.96657504     0.83900
C1006       C  0.27066681  0.33680665  0.03060750     0.84200
O1007       O  0.26421459  0.34312510  0.01494629    -0.80700
O1008       O  0.76337668  0.49039584  0.71854208    -0.78200
C1009       C  0.79642179  0.54114016  0.71302233     0.82800
O1010       O  0.83173815  0.48316331  0.73654805    -0.79300
O1011       O  0.80895512  0.54050845  0.77396738    -0.80800
O1012       O  0.75353765  0.50922229  0.77703842    -0.80600
O1013       O  0.75508629  0.47604261  0.74542968    -0.79200
Zn1014     Zn  0.78930184  0.50031532  0.72396932     1.55700
O1015       O  0.76209762  0.53738668  0.76574881    -0.80600
Cd1016     Cd  0.77228828  0.49030201  0.76459613     1.59700
Cd1017     Cd  0.81776045  0.49682714  0.75867303     1.59600
O1018       O  0.78451560  0.47232828  0.78487217    -0.80600
O1019       O  0.79207696  0.50464053  0.75049436    -1.91100
Cd1020     Cd  0.78888926  0.53200921  0.75477627     1.59900
O1021       O  0.81532285  0.47738946  0.78035773    -0.80600
O1022       O  0.79446518  0.54702991  0.72998561    -0.79200
C1023       C  0.82514107  0.47739462  0.72074300     0.83300
C1024       C  0.75203651  0.48016231  0.72810949     0.83000
O1025       O  0.79431069  0.52380845  0.70887710    -0.78200
C1026       C  0.75050775  0.52683335  0.77478634     0.83800
O1027       O  0.80860957  0.48179285  0.71523440    -0.78300
C1028       C  0.80181549  0.46920416  0.78912474     0.83900
C1029       C  0.82578855  0.53495257  0.77713006     0.84200
O1030       O  0.83242452  0.51973395  0.77006741    -0.80700
O1031       O  0.97892026  0.21141166  0.79408199    -0.78200
C1032       C  0.02575454  0.22986203  0.75343647     0.82800
O1033       O  0.02080601  0.23987910  0.83289325    -0.79300
O1034       O  0.03259595  0.28671618  0.78417885    -0.80800
O1035       O  0.96618030  0.26928991  0.76373422    -0.80600
O1036       O  0.95677625  0.23360337  0.79648685    -0.79200
Zn1037     Zn  0.00340933  0.22602078  0.79020448     1.55700
O1038       O  0.99435920  0.28036903  0.75468823    -0.80600
Cd1039     Cd  0.97223228  0.25796652  0.79016295     1.59700
Cd1040     Cd  0.00802356  0.26171797  0.81808642     1.59600
O1041       O  0.96514548  0.27860388  0.80938863    -0.80600
O1042       O  0.99959977  0.25288554  0.79265584    -1.91100
Cd1043     Cd  0.01357735  0.26698326  0.77255274     1.59900
O1044       O  0.98654104  0.27598244  0.83241572    -0.80600
O1045       O  0.02752888  0.24765462  0.75545784    -0.79200
C1046       C  0.02571998  0.22356482  0.82702379     0.83300
C1047       C  0.96190645  0.21635797  0.79746387     0.83000
O1048       O  0.01598035  0.22007400  0.76509701    -0.78200
C1049       C  0.97647836  0.27894912  0.75244044     0.83800
O1050       O  0.02067099  0.21727083  0.81092024    -0.78300
C1051       C  0.97155463  0.28329164  0.82555736     0.83900
C1052       C  0.03665523  0.29063129  0.80136259     0.84200
O1053       O  0.02866507  0.28195776  0.81499831    -0.80700
C1054       C  0.85030065  0.35489659  0.91334648     0.86800
C1055       C  0.85986729  0.36845731  0.92734150    -0.53500
C1056       C  0.87047988  0.38231889  0.91903056     0.09700
C1057       C  0.87047630  0.38152457  0.89715209     0.20700
C1058       C  0.83904323  0.36759467  0.89986271    -0.54200
C1059       C  0.84945722  0.38141752  0.89129799     0.09800
C1060       C  0.86697274  0.34772061  0.90114270    -0.53700
C1061       C  0.87738646  0.36148397  0.89256579     0.10400
H1062       H  0.85850828  0.36706116  0.94258349     0.14900
H1063       H  0.87894565  0.39275684  0.89017250     0.00600
H1064       H  0.82409485  0.36553998  0.89700499     0.15200
H1065       H  0.87106677  0.33317724  0.89932850     0.15000
C1066       C  0.14616524  0.42203541  0.84161617     0.86800
C1067       C  0.13292429  0.40770821  0.83207537    -0.53500
C1068       C  0.12167292  0.39777770  0.84431367     0.09700
C1069       C  0.12441298  0.40342639  0.86523892     0.20700
C1070       C  0.13251112  0.43465101  0.85331970    -0.54200
C1071       C  0.12118953  0.42494287  0.86582691     0.09800
C1072       C  0.15683313  0.41081988  0.85666526    -0.53700
C1073       C  0.14569217  0.40126682  0.86907008     0.10400
H1074       H  0.13273680  0.40535594  0.81688805     0.14900
H1075       H  0.11539765  0.39519129  0.87508551     0.00600
H1076       H  0.13171101  0.44983898  0.85231004     0.15200
H1077       H  0.17217120  0.41070339  0.85762445     0.15000
C1078       C  0.91454772  0.66183869  0.85289016     0.86800
C1079       C  0.89842687  0.67036950  0.86497387    -0.53500
C1080       C  0.88845586  0.65763208  0.87584023     0.09700
C1081       C  0.89626286  0.63730711  0.87372843     0.20700
C1082       C  0.92697752  0.65199365  0.86756362    -0.54200
C1083       C  0.91761992  0.63910340  0.87838333     0.09800
C1084       C  0.90494796  0.64602277  0.84175395    -0.53700
C1085       C  0.89550268  0.63302603  0.85233319     0.10400
H1086       H  0.89545794  0.68527265  0.86570590     0.14900
H1087       H  0.88859387  0.62659147  0.88192127     0.00600
H1088       H  0.94202611  0.65468800  0.86904768     0.15200
H1089       H  0.90579968  0.64514679  0.82641788     0.15000
C1090       C  0.08307326  0.35777716  0.14624973     0.86800
C1091       C  0.07138179  0.36855577  0.13133487    -0.53500
C1092       C  0.08177299  0.38027861  0.11976339     0.09700
C1093       C  0.10311008  0.38009142  0.12439583     0.20700
C1094       C  0.09850798  0.34765215  0.13490706    -0.54200
C1095       C  0.10917019  0.35918825  0.12364072     0.09800
C1096       C  0.09346469  0.37376176  0.15672244    -0.53700
C1097       C  0.10368620  0.38540976  0.14545221     0.10400
H1098       H  0.05608973  0.36751719  0.13050809     0.14900
H1099       H  0.11191673  0.38923355  0.11519977     0.00600
H1100       H  0.10063705  0.33250480  0.13559742     0.15200
H1101       H  0.09175535  0.37727873  0.17151261     0.15000
C1102       C  0.85475512  0.58839783  0.15216277     0.86800
C1103       C  0.86871635  0.57606472  0.14083259    -0.53500
C1104       C  0.87951197  0.58576511  0.12791192     0.09700
C1105       C  0.87595941  0.60728663  0.12830523     0.20700
C1106       C  0.86779531  0.60317993  0.16154547    -0.54200
C1107       C  0.87882756  0.61306184  0.14916250     0.09800
C1108       C  0.84369938  0.59945098  0.13727810    -0.53700
C1109       C  0.85454205  0.60929780  0.12482605     0.10400
H1110       H  0.86980611  0.56091685  0.14272539     0.14900
H1111       H  0.88487530  0.61551316  0.11834646     0.00600
H1112       H  0.86899237  0.60556116  0.17662622     0.15200
H1113       H  0.82835167  0.59921298  0.13642555     0.15000
C1114       C  0.15322514  0.65195683  0.07914544     0.86800
C1115       C  0.16268048  0.64031990  0.09503965    -0.53500
C1116       C  0.15040008  0.62958897  0.10558739     0.09700
C1117       C  0.12958382  0.63166819  0.09928435     0.20700
C1118       C  0.14223658  0.63724144  0.06765350    -0.54200
C1119       C  0.12994670  0.62656110  0.07805354     0.09800
C1120       C  0.13821825  0.66345991  0.08969302    -0.53700
C1121       C  0.12580370  0.65311507  0.10010834     0.10400
H1122       H  0.17763123  0.64037388  0.09816393     0.14900
H1123       H  0.11939262  0.62301248  0.10749813     0.00600
H1124       H  0.14387840  0.63559547  0.05245243     0.15200
H1125       H  0.13747839  0.67875589  0.08899939     0.15000
O1126       O  0.02221435  0.54494385  0.01154704    -0.78200
C1127       C  0.98014004  0.54574303  0.96519243     0.82800
O1128       O  0.96862812  0.50673258  0.03186199    -0.79300
O1129       O  0.97124906  0.48451733  0.96659998    -0.80800
O1130       O  0.03805737  0.49093213  0.97333258    -0.80600
O1131       O  0.04278269  0.52133671  0.00923328    -0.79200
Zn1132     Zn  0.99701759  0.53381340  0.00325855     1.55700
O1133       O  0.01494246  0.49468349  0.95234497    -0.80600
Cd1134     Cd  0.02662822  0.49957028  0.99875956     1.59700
Cd1135     Cd  0.98356905  0.49049770  0.01240806     1.59600
O1136       O  0.02928781  0.47750385  0.01747598    -0.80600
O1137       O  0.99972576  0.50737528  0.99601087    -1.91100
Cd1138     Cd  0.99245974  0.50426772  0.96888912     1.59900
O1139       O  0.00010995  0.47155256  0.02784830    -0.80600
O1140       O  0.98184675  0.52927617  0.95813992    -0.79200
C1141       C  0.96908726  0.52438847  0.03539602     0.83300
C1142       C  0.03882557  0.53826479  0.01368149     0.83000
O1143       O  0.98585403  0.54957109  0.98187850    -0.78200
C1144       C  0.03182928  0.48989600  0.95647549     0.83800
O1145       O  0.97918971  0.53565669  0.02558514    -0.78300
C1146       C  0.01783757  0.46817030  0.02777987     0.83900
C1147       C  0.96193858  0.47413754  0.97797648     0.84200
O1148       O  0.96473431  0.47487651  0.99583113    -0.80700
O1149       O  0.52328772  0.80178539  0.28842379    -0.78200
C1150       C  0.47639989  0.78243606  0.24817132     0.82800
O1151       O  0.48369175  0.77555468  0.32849138    -0.79300
O1152       O  0.46831149  0.72700136  0.28218362    -0.80800
O1153       O  0.53329378  0.74371144  0.25751979    -0.80600
O1154       O  0.54525943  0.77937147  0.28880207    -0.79200
Zn1155     Zn  0.49847769  0.78749478  0.28488488     1.55700
O1156       O  0.50456066  0.73262551  0.25100492    -0.80600
Cd1157     Cd  0.52911070  0.75543108  0.28398339     1.59700
Cd1158     Cd  0.49494511  0.75271450  0.31395928     1.59600
O1159       O  0.53811401  0.73631980  0.30375297    -0.80600
O1160       O  0.50200471  0.76078482  0.28805276    -1.91100
Cd1161     Cd  0.48661846  0.74650652  0.26931496     1.59900
O1162       O  0.51753831  0.73949642  0.32751001    -0.80600
O1163       O  0.47278018  0.76513022  0.25160546    -0.79200
C1164       C  0.47762110  0.79137532  0.32242926     0.83300
C1165       C  0.54042541  0.79659651  0.29053152     0.83000
O1166       O  0.48676890  0.79235056  0.25914016    -0.78200
C1167       C  0.52211633  0.73400204  0.24719633     0.83800
O1168       O  0.48120972  0.79693446  0.30560304    -0.78300
C1169       C  0.53286693  0.73282225  0.32063467     0.83900
C1170       C  0.46559112  0.72317628  0.29966581     0.84200
O1171       O  0.47413984  0.73223350  0.31266315    -0.80700
O1172       O  0.51395537  0.22561933  0.73155514    -0.78200
C1173       C  0.46213813  0.21583802  0.69960665     0.82800
O1174       O  0.51840217  0.24299672  0.66297041    -0.79300
O1175       O  0.45851031  0.27565099  0.68433086    -0.80800
O1176       O  0.48784428  0.28485170  0.73893154    -0.80600
O1177       O  0.52252294  0.25427867  0.74135402    -0.79200
Zn1178     Zn  0.50249195  0.22957898  0.70584577     1.55700
O1179       O  0.46095496  0.27010266  0.73143196    -0.80600
Cd1180     Cd  0.50843551  0.27170548  0.72244303     1.59700
Cd1181     Cd  0.50390770  0.26410190  0.67716987     1.59600
O1182       O  0.52662476  0.29174556  0.71008528    -0.80600
O1183       O  0.49604743  0.25573492  0.70282313    -1.91100
Cd1184     Cd  0.46824794  0.25824004  0.70545747     1.59900
O1185       O  0.52250593  0.28627984  0.67929450    -0.80600
O1186       O  0.45535228  0.23240664  0.70103801    -0.79200
C1187       C  0.52509569  0.22758501  0.66937251     0.83300
C1188       C  0.52196317  0.23642104  0.74358161     0.83000
O1189       O  0.47975518  0.21281398  0.70180316    -0.78200
C1190       C  0.47031111  0.28150946  0.74182345     0.83800
O1191       O  0.52101125  0.22153781  0.68585491    -0.78300
C1192       C  0.52999987  0.29561605  0.69270956     0.83900
C1193       C  0.46473545  0.27970484  0.66788892     0.84200
O1194       O  0.48111872  0.27462430  0.66227235    -0.80700
O1195       O  0.70170689  0.98565735  0.79623236    -0.78200
C1196       C  0.74353669  0.02989195  0.77638655     0.82800
O1197       O  0.66306945  0.02287297  0.76934109    -0.79300
O1198       O  0.70949935  0.03725956  0.72124170    -0.80800
O1199       O  0.73610561  0.97344554  0.74021362    -0.80600
O1200       O  0.70355038  0.96201050  0.77573865    -0.79200
Zn1201     Zn  0.70670202  0.00911545  0.78116978     1.55700
O1202       O  0.74156963  0.00150251  0.72695985    -0.80600
Cd1203     Cd  0.70894779  0.97708318  0.75092366     1.59700
Cd1204     Cd  0.67786320  0.01025309  0.74694089     1.59600
O1205       O  0.69013908  0.96765996  0.73090542    -0.80600
O1206       O  0.70399259  0.00416033  0.75490023    -1.91100
Cd1207     Cd  0.72273360  0.01933281  0.74050679     1.59900
O1208       O  0.66533134  0.98695004  0.73378034    -0.80600
O1209       O  0.73997362  0.03382597  0.75915209    -0.79200
C1210       C  0.66981601  0.03022899  0.78444237     0.83300
C1211       C  0.70043482  0.96814005  0.79243978     0.83000
O1212       O  0.73274250  0.01934353  0.78627510    -0.78200
C1213       C  0.74623030  0.98439058  0.72995943     0.83800
O1214       O  0.68688958  0.02748180  0.78943938    -0.78300
C1215       C  0.67333779  0.97244702  0.72656263     0.83900
C1216       C  0.69199709  0.03963419  0.71744797     0.84200
O1217       O  0.67912696  0.03036160  0.72597725    -0.80700
C1218       C  0.34736528  0.09531817  0.64817759     0.86800
C1219       C  0.36101973  0.08145753  0.63837916    -0.53500
C1220       C  0.37396749  0.08986523  0.62664158     0.09700
C1221       C  0.37229130  0.11148055  0.62591330     0.20700
C1222       C  0.36026026  0.10964204  0.65818076    -0.54200
C1223       C  0.37338331  0.11803974  0.64665951     0.09800
C1224       C  0.33883563  0.10641251  0.63144747    -0.53700
C1225       C  0.35176972  0.11501728  0.62009639     0.10400
H1226       H  0.36043920  0.06631904  0.64056372     0.14900
H1227       H  0.38280072  0.11823648  0.61637908     0.00600
H1228       H  0.35916856  0.11276929  0.67319355     0.15200
H1229       H  0.32406585  0.10696647  0.62766367     0.15000
C1230       C  0.58007734  0.85420736  0.64869868     0.86800
C1231       C  0.56729953  0.86593213  0.63568972    -0.53500
C1232       C  0.57684799  0.87773364  0.62376141     0.09700
C1233       C  0.59866203  0.87640085  0.62544737     0.20700
C1234       C  0.59330553  0.84374564  0.63474488    -0.54200
C1235       C  0.60329160  0.85524444  0.62274054     0.09800
C1236       C  0.59309683  0.86845874  0.65841996    -0.53700
C1237       C  0.60289398  0.87995016  0.64650708     0.10400
H1238       H  0.55196360  0.86513928  0.63601744     0.14900
H1239       H  0.60656936  0.88603746  0.61590982     0.00600
H1240       H  0.59532958  0.82865616  0.63426501     0.15200
H1241       H  0.59445716  0.86939501  0.67371286     0.15000
C1242       C  0.65591474  0.15000898  0.58769433     0.86800
C1243       C  0.66415399  0.13707257  0.60288593    -0.53500
C1244       C  0.65106300  0.12684105  0.61258059     0.09700
C1245       C  0.63047661  0.13010953  0.60593814     0.20700
C1246       C  0.64412791  0.13655155  0.57493771    -0.54200
C1247       C  0.63057930  0.12621170  0.58443591     0.09800
C1248       C  0.64067291  0.16174203  0.59775463    -0.53700
C1249       C  0.62736216  0.15152562  0.60731299     0.10400
H1250       H  0.67918743  0.13621318  0.60590073     0.14900
H1251       H  0.61964540  0.12204538  0.61380789     0.00600
H1252       H  0.64541461  0.13576142  0.55970606     0.15200
H1253       H  0.64011135  0.17702792  0.59679157     0.15000
C1254       C  0.34816199  0.85987430  0.41258690     0.86800
C1255       C  0.35784097  0.87455731  0.42566639    -0.53500
C1256       C  0.37008749  0.88653896  0.41651791     0.09700
C1257       C  0.37159390  0.88268403  0.39504114     0.20700
C1258       C  0.33889914  0.87197069  0.39714508    -0.54200
C1259       C  0.35100869  0.88374050  0.38776226     0.09800
C1260       C  0.36490281  0.85000429  0.40292388    -0.53700
C1261       C  0.37710292  0.86171644  0.39371456     0.10400
H1262       H  0.35594646  0.87542108  0.44082712     0.14900
H1263       H  0.38159715  0.89207875  0.38742152     0.00600
H1264       H  0.32390479  0.87127546  0.39390762     0.15200
H1265       H  0.36694404  0.83482057  0.40331729     0.15000
C1266       C  0.64836984  0.91978552  0.34917367     0.86800
C1267       C  0.63433922  0.90698480  0.33855273    -0.53500
C1268       C  0.62162540  0.89784456  0.34989774     0.09700
C1269       C  0.62396033  0.90255952  0.37124208     0.20700
C1270       C  0.63572728  0.93315739  0.36080276    -0.54200
C1271       C  0.62326622  0.92437229  0.37284691     0.09800
C1272       C  0.65725711  0.90632410  0.36367346    -0.53700
C1273       C  0.64470172  0.89786567  0.37557364     0.10400
H1274       H  0.63512815  0.90378277  0.32359098     0.14900
H1275       H  0.61396089  0.89494059  0.38066220     0.00600
H1276       H  0.63669985  0.94835841  0.35945056     0.15200
H1277       H  0.67240532  0.90436846  0.36517554     0.15000
C1278       C  0.41835253  0.15984573  0.35003678     0.86800
C1279       C  0.40310622  0.17023813  0.36152048    -0.53500
C1280       C  0.39333394  0.15911822  0.37401669     0.09700
C1281       C  0.39989541  0.13826356  0.37399241     0.20700
C1282       C  0.43095580  0.15026517  0.36481584    -0.54200
C1283       C  0.42147886  0.13876032  0.37714628     0.09800
C1284       C  0.40711406  0.14354068  0.34087360    -0.53700
C1285       C  0.39783322  0.13200909  0.35322891     0.10400
H1286       H  0.39997515  0.18509655  0.35961596     0.14900
H1287       H  0.39231018  0.12902836  0.38417903     0.00600
H1288       H  0.44624095  0.15178762  0.36494805     0.15200
H1289       H  0.40563211  0.14131689  0.32580619     0.15000
O1290       O  0.51306079  0.96654029  0.51670993    -0.78200
C1291       C  0.46281294  0.97385093  0.48161350     0.82800
O1292       O  0.53330767  0.00824576  0.46644194    -0.79300
O1293       O  0.46969667  0.03453258  0.47520313    -0.80800
O1294       O  0.48174705  0.02225132  0.54221612    -0.80600
O1295       O  0.51427294  0.98705267  0.54062774    -0.79200
Zn1296     Zn  0.50386611  0.98122737  0.49386759     1.55700
O1297       O  0.45971022  0.02478929  0.51990042    -0.80600
Cd1298     Cd  0.50514245  0.01198148  0.52778343     1.59700
Cd1299     Cd  0.51594324  0.02450395  0.48414613     1.59600
O1300       O  0.52525276  0.03322788  0.53066707    -0.80600
O1301       O  0.49945582  0.00763743  0.50027073    -1.91100
Cd1302     Cd  0.47221177  0.01383926  0.49570152     1.59900
O1303       O  0.53277528  0.04185699  0.50117940    -0.80600
O1304       O  0.45730929  0.99031936  0.48634928    -0.79200
C1305       C  0.53464377  0.99037480  0.46451814     0.83300
C1306       C  0.51665765  0.97048127  0.53394243     0.83000
O1307       O  0.48004762  0.96882601  0.48339082    -0.78200
C1308       C  0.46532162  0.02729845  0.53684900     0.83800
O1309       O  0.52434446  0.97910808  0.47411200    -0.78300
C1310       C  0.53434268  0.04369909  0.51909362     0.83900
C1311       C  0.48144838  0.04451846  0.46583246     0.84200
O1312       O  0.49928461  0.04230131  0.46752175    -0.80700
C1313       C  0.43139697  0.12582530  0.39037725    -0.11700
C1314       C  0.44483147  0.11259610  0.38378033     0.03800
C1315       C  0.45355241  0.10023086  0.39649118    -0.12200
C1316       C  0.44904167  0.10060701  0.41579719     0.18700
C1317       C  0.43570094  0.11378579  0.42244624    -0.09300
C1318       C  0.42692485  0.12619846  0.40974427    -0.02200
H1319       H  0.46354547  0.08990885  0.39121528     0.05200
C1320       C  0.45746070  0.08628229  0.42849814     0.20600
H1321       H  0.41659968  0.13617077  0.41500922     0.10400
C1322       C  0.47458696  0.09005535  0.43773011    -0.15600
C1323       C  0.48281927  0.07664757  0.44977716     0.03400
C1324       C  0.47387170  0.05900440  0.45266608    -0.10900
C1325       C  0.45670225  0.05536195  0.44332150    -0.00900
C1326       C  0.44857596  0.06874584  0.43128523    -0.06100
H1327       H  0.48145906  0.10357661  0.43571759     0.06400
H1328       H  0.44956789  0.04197274  0.44531589     0.09800
Br1329     Br  0.42887952  0.11499713  0.44870052    -0.05800
Br1330     Br  0.45071030  0.10962136  0.35739505    -0.02700
Br1331     Br  0.50548158  0.08387069  0.46284917     0.00100
Br1332     Br  0.42526001  0.06255342  0.41890533    -0.04300
C1333       C  0.61094277  0.93474788  0.38681412    -0.11700
C1334       C  0.61686965  0.95125512  0.39661108     0.03800
C1335       C  0.60443769  0.96060337  0.40893504    -0.12200
C1336       C  0.58619896  0.95372204  0.41229243     0.18700
C1337       C  0.58039726  0.93708052  0.40315832    -0.09300
C1338       C  0.59278203  0.92766894  0.39086936    -0.02200
H1339       H  0.60922038  0.97308293  0.41639159     0.05200
C1340       C  0.57372655  0.96363469  0.42597254     0.20600
H1341       H  0.58804207  0.91471209  0.38451305     0.10400
C1342       C  0.56471246  0.98043227  0.42063429    -0.15600
C1343       C  0.55225504  0.98969772  0.43304147     0.03400
C1344       C  0.54862962  0.98208787  0.45118078    -0.10900
C1345       C  0.55805677  0.96548759  0.45656927    -0.00900
C1346       C  0.57062716  0.95640977  0.44426494    -0.06100
H1347       H  0.56708515  0.98614208  0.40660622     0.06400
H1348       H  0.55568565  0.95954667  0.47050392     0.09800
Br1349     Br  0.55552226  0.92685029  0.40682883    -0.05800
Br1350     Br  0.64218778  0.96088574  0.39610242    -0.02700
Br1351     Br  0.53962008  0.01180839  0.42388017     0.00100
Br1352     Br  0.58349990  0.93432527  0.45314939    -0.04300
C1353       C  0.38257715  0.90007401  0.42687131    -0.11700
C1354       C  0.38604697  0.91860820  0.42033806     0.03800
C1355       C  0.39927668  0.93010082  0.42961677    -0.12200
C1356       C  0.40912300  0.92356795  0.44551165     0.18700
C1357       C  0.40534786  0.90533634  0.45237942    -0.09300
C1358       C  0.39216640  0.89381023  0.44314602    -0.02200
H1359       H  0.40183314  0.94427247  0.42447177     0.05200
C1360       C  0.42306776  0.93606157  0.45492918     0.20600
H1361       H  0.38992532  0.87960750  0.44833650     0.10400
C1362       C  0.41746880  0.94674745  0.47066993    -0.15600
C1363       C  0.43021833  0.95888080  0.47978026     0.03400
C1364       C  0.44903447  0.96045351  0.47315564    -0.10900
C1365       C  0.45467821  0.94939094  0.45761299    -0.00900
C1366       C  0.44185985  0.93738503  0.44844917    -0.06100
H1367       H  0.40309847  0.94561014  0.47590505     0.06400
H1368       H  0.46902414  0.95040029  0.45228514     0.09800
Br1369     Br  0.41835911  0.89543589  0.47397783    -0.05800
Br1370     Br  0.37234715  0.92958388  0.39971852    -0.02700
Br1371     Br  0.42137692  0.97210188  0.50179002     0.00100
Br1372     Br  0.45056073  0.92307660  0.42710167    -0.04300
C1373       C  0.61531892  0.11526686  0.57440458    -0.11700
C1374       C  0.60781523  0.09799558  0.58129982     0.03800
C1375       C  0.59355612  0.08858700  0.57129948    -0.12200
C1376       C  0.58637482  0.09580682  0.55437937     0.18700
C1377       C  0.59326992  0.11316170  0.54764171    -0.09300
C1378       C  0.60753768  0.12271372  0.55760211    -0.02200
H1379       H  0.58833867  0.07517468  0.57651926     0.05200
C1380       C  0.57261543  0.08421070  0.54358849     0.20600
H1381       H  0.61243004  0.13615758  0.55220310     0.10400
C1382       C  0.55346263  0.08418742  0.54883090    -0.15600
C1383       C  0.54068068  0.07150239  0.54051888     0.03400
C1384       C  0.54705004  0.05843910  0.52682213    -0.10900
C1385       C  0.56603117  0.05906008  0.52101393    -0.00900
C1386       C  0.57880143  0.07168820  0.52938785    -0.06100
H1387       H  0.54852579  0.09381872  0.55966980     0.06400
H1388       H  0.57111468  0.04918373  0.51047098     0.09800
Br1389     Br  0.58355286  0.12426611  0.52493123    -0.05800
Br1390     Br  0.61676893  0.08521854  0.60335736    -0.02700
Br1391     Br  0.51455702  0.07293593  0.54788111     0.00100
Br1392     Br  0.60484858  0.07063815  0.52185198    -0.04300
C1393       C  0.56674802  0.89050932  0.61057326    -0.11700
C1394       C  0.56066460  0.90856161  0.61624478     0.03800
C1395       C  0.55149067  0.92038823  0.60332272    -0.12200
C1396       C  0.54735118  0.91424387  0.58488110     0.18700
C1397       C  0.55239497  0.89570486  0.57961528    -0.09300
C1398       C  0.56199605  0.88405553  0.59243292    -0.02200
H1399       H  0.54749223  0.93446709  0.60772947     0.05200
C1400       C  0.53849084  0.92764792  0.57128162     0.20600
H1401       H  0.56553675  0.86978030  0.58830753     0.10400
C1402       C  0.54825342  0.93246699  0.55462114    -0.15600
C1403       C  0.54105293  0.94596622  0.54208857     0.03400
C1404       C  0.52408353  0.95546388  0.54641597    -0.10900
C1405       C  0.51419639  0.95058451  0.56295470    -0.00900
C1406       C  0.52106070  0.93657686  0.57516342    -0.06100
H1407       H  0.56171920  0.92589099  0.55148097     0.06400
H1408       H  0.50092401  0.95748334  0.56622519     0.09800
Br1409     Br  0.54567103  0.88529851  0.55548037    -0.05800
Br1410     Br  0.56338513  0.91731764  0.64174469    -0.02700
Br1411     Br  0.55544880  0.95163695  0.51972759     0.00100
Br1412     Br  0.50566443  0.92950878  0.59642318    -0.04300
C1413       C  0.38802450  0.07942927  0.61501659    -0.11700
C1414       C  0.38293684  0.06388467  0.60355313     0.03800
C1415       C  0.39648348  0.05542907  0.59184889    -0.12200
C1416       C  0.41504898  0.06229629  0.59109965     0.18700
C1417       C  0.42016659  0.07779208  0.60241166    -0.09300
C1418       C  0.40672168  0.08616583  0.61429998    -0.02200
H1419       H  0.39239525  0.04372305  0.58287570     0.05200
C1420       C  0.42849865  0.05370766  0.57759797     0.20600
H1421       H  0.41084754  0.09815817  0.62286499     0.10400
C1422       C  0.42843007  0.05975204  0.55873446    -0.15600
C1423       C  0.44042925  0.05150547  0.54531634     0.03400
C1424       C  0.45256158  0.03659289  0.55066299    -0.10900
C1425       C  0.45289481  0.03090617  0.56973107    -0.00900
C1426       C  0.44098022  0.03933325  0.58314774    -0.06100
H1427       H  0.41908096  0.07106860  0.55447579     0.06400
H1428       H  0.46229601  0.01971495  0.57418446     0.09800
Br1429     Br  0.44514957  0.08832604  0.60152711    -0.05800
Br1430     Br  0.35747053  0.05464660  0.60166311    -0.02700
Br1431     Br  0.44054105  0.06227993  0.52036156     0.00100
Br1432     Br  0.44204562  0.03076645  0.60886161    -0.04300
C1433       C  0.65679150  0.11398710  0.62803842    -0.11700
C1434       C  0.66207453  0.12095621  0.64595898     0.03800
C1435       C  0.66823471  0.10853428  0.65999361    -0.12200
C1436       C  0.66963898  0.08916708  0.65639210     0.18700
C1437       C  0.66478565  0.08219253  0.63838891    -0.09300
C1438       C  0.65875514  0.09466663  0.62428325    -0.02200
H1439       H  0.67208492  0.11401623  0.67377561     0.05200
C1440       C  0.67566447  0.07653997  0.67186117     0.20600
H1441       H  0.65590781  0.08930094  0.61024488     0.10400
C1442       C  0.66296011  0.07280545  0.68659505    -0.15600
C1443       C  0.66805917  0.06127054  0.70177802     0.03400
C1444       C  0.68633900  0.05307764  0.70235858    -0.10900
C1445       C  0.69920435  0.05730444  0.68772273    -0.00900
C1446       C  0.69401104  0.06893957  0.67259091    -0.06100
H1447       H  0.64896461  0.07900530  0.68630241     0.06400
H1448       H  0.71328811  0.05132345  0.68786551     0.09800
Br1449     Br  0.66581657  0.05577721  0.63261337    -0.05800
Br1450     Br  0.66174945  0.14728868  0.65197472    -0.02700
Br1451     Br  0.64948582  0.05829031  0.72149729     0.00100
Br1452     Br  0.71249078  0.07438071  0.65342719    -0.04300
C1453       C  0.61612345  0.89429938  0.65405826    -0.11700
C1454       C  0.62993401  0.88934236  0.66755220     0.03800
C1455       C  0.63906363  0.90339008  0.67795922    -0.12200
C1456       C  0.63463066  0.92243046  0.67520719     0.18700
C1457       C  0.62190859  0.92749265  0.66079264    -0.09300
C1458       C  0.61304075  0.91341469  0.65007059    -0.02200
H1459       H  0.64933273  0.89942761  0.68859173     0.05200
C1460       C  0.64370913  0.93662244  0.68749491     0.20600
H1461       H  0.60307691  0.91741388  0.63923764     0.10400
C1462       C  0.66266160  0.94127564  0.68422464    -0.15600
C1463       C  0.67238618  0.95322929  0.69655681     0.03400
C1464       C  0.66307444  0.96076421  0.71260911    -0.10900
C1465       C  0.64388520  0.95652759  0.71554129    -0.00900
C1466       C  0.63424693  0.94436300  0.70324639    -0.06100
H1467       H  0.66999598  0.93535487  0.67212414     0.06400
H1468       H  0.63656715  0.96212080  0.72780185     0.09800
Br1469     Br  0.61574413  0.95333784  0.65581862    -0.05800
Br1470     Br  0.63700416  0.86359908  0.67214538    -0.02700
Br1471     Br  0.69818120  0.95914413  0.69024724     0.00100
Br1472     Br  0.60856471  0.93779528  0.70909471    -0.04300
C1473       C  0.44964007  0.19989481  0.69397106    -0.11700
C1474       C  0.42969046  0.20066063  0.69562941     0.03800
C1475       C  0.41858827  0.18617333  0.68806226    -0.12200
C1476       C  0.42684941  0.17074668  0.67885925     0.18700
C1477       C  0.44664475  0.16962798  0.67752500    -0.09300
C1478       C  0.45784645  0.18403603  0.68514155    -0.02200
H1479       H  0.40332710  0.18702576  0.68919036     0.05200
C1480       C  0.41436619  0.15654512  0.67001760     0.20600
H1481       H  0.47304760  0.18313028  0.68345644     0.10400
C1482       C  0.40459612  0.16139397  0.65350563    -0.15600
C1483       C  0.39140318  0.14906225  0.64547487     0.03400
C1484       C  0.38782652  0.13139738  0.65402647    -0.10900
C1485       C  0.39787082  0.12650462  0.67046516    -0.00900
C1486       C  0.41098608  0.13892463  0.67850487    -0.06100
H1487       H  0.40692465  0.17508999  0.64709714     0.06400
H1488       H  0.39535296  0.11301114  0.67721688     0.09800
Br1489     Br  0.45890054  0.14925886  0.66449024    -0.05800
Br1490     Br  0.41643611  0.22073817  0.70818815    -0.02700
Br1491     Br  0.37771873  0.15813309  0.62395287     0.00100
Br1492     Br  0.42324965  0.13165893  0.70155181    -0.04300
C1493       C  0.53802981  0.21629458  0.65760281    -0.11700
C1494       C  0.55416280  0.22432500  0.64907080     0.03800
C1495       C  0.56717027  0.21272968  0.63974555    -0.12200
C1496       C  0.56412531  0.19319966  0.63823701     0.18700
C1497       C  0.54757413  0.18531543  0.64611690    -0.09300
C1498       C  0.53484817  0.19682347  0.65593240    -0.02200
H1499       H  0.57996801  0.21893197  0.63400593     0.05200
C1500       C  0.57900757  0.18127766  0.62955421     0.20600
H1501       H  0.52237423  0.19054503  0.66228316     0.10400
C1502       C  0.58769718  0.16724583  0.64049725    -0.15600
C1503       C  0.60283703  0.15668821  0.63338071     0.03400
C1504       C  0.61007711  0.16064263  0.61515573    -0.10900
C1505       C  0.60090176  0.17428800  0.60402391    -0.00900
C1506       C  0.58548269  0.18445698  0.61098079    -0.06100
H1507       H  0.58288014  0.16472292  0.65484552     0.06400
H1508       H  0.60576911  0.17708816  0.58974517     0.09800
Br1509     Br  0.54145180  0.15905971  0.64347705    -0.05800
Br1510     Br  0.55988967  0.25074195  0.65099072    -0.02700
Br1511     Br  0.61312184  0.13782486  0.64976970     0.00100
Br1512     Br  0.57353507  0.20220920  0.59436935    -0.04300
C1513       C  0.55471580  0.81051090  0.29700677    -0.11700
C1514       C  0.55566004  0.82905998  0.28986442     0.03800
C1515       C  0.56765496  0.84235749  0.29839742    -0.12200
C1516       C  0.57878648  0.83756077  0.31413396     0.18700
C1517       C  0.57813635  0.81890183  0.32099867    -0.09300
C1518       C  0.56640619  0.80555700  0.31227816    -0.02200
H1519       H  0.56809411  0.85661685  0.29290662     0.05200
C1520       C  0.58994999  0.85250142  0.32385697     0.20600
H1521       H  0.56564379  0.79146111  0.31816153     0.10400
C1522       C  0.58037651  0.86756706  0.33249464    -0.15600
C1523       C  0.59028651  0.88232112  0.34126346     0.03400
C1524       C  0.61019025  0.88189852  0.34214871    -0.10900
C1525       C  0.61974948  0.86683754  0.33336441    -0.00900
C1526       C  0.60987538  0.85242119  0.32404489    -0.06100
H1527       H  0.56507645  0.86811436  0.33193536     0.06400
H1528       H  0.63507081  0.86661405  0.33324438     0.09800
Br1529     Br  0.59161807  0.81132437  0.34327847    -0.05800
Br1530     Br  0.54125442  0.83679080  0.26825429    -0.02700
Br1531     Br  0.57596060  0.90362169  0.34950927     0.00100
Br1532     Br  0.62425412  0.83386263  0.31047144    -0.04300
C1533       C  0.39344986  0.85412387  0.38290477    -0.11700
C1534       C  0.41234462  0.85934548  0.38672698     0.03800
C1535       C  0.42722278  0.85046009  0.37710847    -0.12200
C1536       C  0.42358143  0.83638919  0.36368853     0.18700
C1537       C  0.40478472  0.83140803  0.35960093    -0.09300
C1538       C  0.38994404  0.84016982  0.36923370    -0.02200
H1539       H  0.44170203  0.85418459  0.38044371     0.05200
C1540       C  0.43940176  0.82619692  0.35469677     0.20600
H1541       H  0.37553947  0.83598592  0.36611525     0.10400
C1542       C  0.44413755  0.80826511  0.36142706    -0.15600
C1543       C  0.45713884  0.79690754  0.35178352     0.03400
C1544       C  0.46567651  0.80354192  0.33483361    -0.10900
C1545       C  0.46158968  0.82207702  0.32883876    -0.00900
C1546       C  0.44860065  0.83334110  0.33860866    -0.06100
H1547       H  0.43710553  0.80279624  0.37392333     0.06400
H1548       H  0.46808280  0.82772660  0.31614756     0.09800
Br1549     Br  0.39879207  0.81254621  0.34106907    -0.05800
Br1550     Br  0.41899148  0.87710276  0.40596776    -0.02700
Br1551     Br  0.46129241  0.77225959  0.36231240     0.00100
Br1552     Br  0.44299241  0.85797785  0.32893316    -0.04300
C1553       C  0.05378647  0.55036560  0.02188929    -0.11700
C1554       C  0.06726101  0.54319801  0.03479247     0.03800
C1555       C  0.08026772  0.55540556  0.04330580    -0.12200
C1556       C  0.08032033  0.57470026  0.03908942     0.18700
C1557       C  0.06765207  0.58168859  0.02543460    -0.09300
C1558       C  0.05431293  0.56961540  0.01722382    -0.02200
H1559       H  0.09006492  0.54990597  0.05369142     0.05200
C1560       C  0.09310171  0.58737610  0.04972211     0.20600
H1561       H  0.04439015  0.57527174  0.00704831     0.10400
C1562       C  0.11274911  0.58581457  0.04741388    -0.15600
C1563       C  0.12508393  0.59787036  0.05714932     0.03400
C1564       C  0.11773090  0.61190154  0.06931019    -0.10900
C1565       C  0.09820688  0.61245723  0.07249179    -0.00900
C1566       C  0.08588380  0.60045854  0.06287858    -0.06100
H1567       H  0.11849450  0.57520427  0.03797298     0.06400
H1568       H  0.09232386  0.62252441  0.08241443     0.09800
Br1569     Br  0.06837847  0.60749135  0.01725104    -0.05800
Br1570     Br  0.06787808  0.51723418  0.04257333    -0.02700
Br1571     Br  0.15176865  0.59369470  0.05445292     0.00100
Br1572     Br  0.05937151  0.60213284  0.06856677    -0.04300
C1573       C  0.95734412  0.53202899  0.05108915    -0.11700
C1574       C  0.96250332  0.54850414  0.06119705     0.03800
C1575       C  0.95031726  0.55587530  0.07496410    -0.12200
C1576       C  0.93307972  0.54706407  0.07914223     0.18700
C1577       C  0.92819266  0.53030477  0.06968212    -0.09300
C1578       C  0.94030971  0.52287778  0.05586073    -0.02200
H1579       H  0.95417375  0.56874924  0.08227988     0.05200
C1580       C  0.91959437  0.55667816  0.09190511     0.20600
H1581       H  0.93608281  0.51020611  0.04840743     0.10400
C1582       C  0.90827111  0.57095190  0.08440531    -0.15600
C1583       C  0.89521226  0.58059121  0.09568279     0.03400
C1584       C  0.89339990  0.57613611  0.11515607    -0.10900
C1585       C  0.90493927  0.56175230  0.12261579    -0.00900
C1586       C  0.91793178  0.55206681  0.11117470    -0.06100
H1587       H  0.90943280  0.57443090  0.06950918     0.06400
H1588       H  0.90399657  0.55812584  0.13747624     0.09800
Br1589     Br  0.90472434  0.51761099  0.07463113    -0.05800
Br1590     Br  0.98617548  0.56137101  0.05753533    -0.02700
Br1591     Br  0.87966948  0.59843569  0.08269206     0.00100
Br1592     Br  0.93321212  0.53276884  0.12236474    -0.04300
C1593       C  0.02559867  0.45326338  0.04019869    -0.11700
C1594       C  0.04025231  0.44120109  0.03397061     0.03800
C1595       C  0.04840913  0.42833932  0.04653447    -0.12200
C1596       C  0.04233929  0.42729158  0.06537361     0.18700
C1597       C  0.02756656  0.43907028  0.07159488    -0.09300
C1598       C  0.01914462  0.45176455  0.05896865    -0.02200
H1599       H  0.05980878  0.41934421  0.04168584     0.05200
C1600       C  0.05263111  0.41493531  0.07866428     0.20600
H1601       H  0.00804478  0.46100610  0.06403746     0.10400
C1602       C  0.06765576  0.42254752  0.08892950    -0.15600
C1603       C  0.07774417  0.41165443  0.10193128     0.03400
C1604       C  0.07271366  0.39247307  0.10501381    -0.10900
C1605       C  0.05781307  0.38483779  0.09420203    -0.00900
C1606       C  0.04787713  0.39585680  0.08110892    -0.06100
H1607       H  0.07142124  0.43724218  0.08693441     0.06400
H1608       H  0.05381818  0.37018570  0.09594810     0.09800
Br1609     Br  0.01906585  0.43875648  0.09739786    -0.05800
Br1610     Br  0.04946815  0.44128696  0.00837203    -0.02700
Br1611     Br  0.09717502  0.42501381  0.11518545     0.00100
Br1612     Br  0.02778540  0.38444117  0.06698459    -0.04300
C1613       C  0.92786126  0.62705781  0.89198043    -0.11700
C1614       C  0.92951120  0.63184287  0.91124310     0.03800
C1615       C  0.93859667  0.61944593  0.92373504    -0.12200
C1616       C  0.94698236  0.60276079  0.91702732     0.18700
C1617       C  0.94684630  0.59901277  0.89744036    -0.09300
C1618       C  0.93733330  0.61112144  0.88512809    -0.02200
H1619       H  0.93917177  0.62284065  0.93867026     0.05200
C1620       C  0.95511185  0.58892142  0.93047599     0.20600
H1621       H  0.93721222  0.60802470  0.87010771     0.10400
C1622       C  0.94647410  0.57117787  0.93213112    -0.15600
C1623       C  0.95428912  0.55709866  0.94352393     0.03400
C1624       C  0.97106020  0.56067264  0.95372298    -0.10900
C1625       C  0.97928630  0.57870954  0.95270165    -0.00900
C1626       C  0.97152518  0.59275609  0.94108504    -0.06100
H1627       H  0.93365652  0.56819847  0.92429559     0.06400
H1628       H  0.99211765  0.58169936  0.96049783     0.09800
Br1629     Br  0.95996346  0.57783450  0.88678171    -0.05800
Br1630     Br  0.92099899  0.65575070  0.92067877    -0.02700
Br1631     Br  0.94091809  0.53355139  0.94521285     0.00100
Br1632     Br  0.98440809  0.61651497  0.93928690    -0.04300
C1633       C  0.10718741  0.43456463  0.87851547    -0.11700
C1634       C  0.10482917  0.42974702  0.89785837     0.03800
C1635       C  0.09166995  0.43939105  0.90904002    -0.12200
C1636       C  0.08075539  0.45402227  0.90159248     0.18700
C1637       C  0.08309571  0.45908603  0.88249168    -0.09300
C1638       C  0.09608630  0.44931334  0.87111795    -0.02200
H1639       H  0.09018201  0.43569294  0.92385425     0.05200
C1640       C  0.06784613  0.46435932  0.91444937     0.20600
H1641       H  0.09754105  0.45333180  0.85640000     0.10400
C1642       C  0.07563261  0.47626676  0.92822284    -0.15600
C1643       C  0.06415959  0.48515087  0.94169044     0.03400
C1644       C  0.04437209  0.48221222  0.94149572    -0.10900
C1645       C  0.03656980  0.47060671  0.92736621    -0.00900
C1646       C  0.04814610  0.46152884  0.91407058    -0.06100
H1647       H  0.09079410  0.47846653  0.92863106     0.06400
H1648       H  0.02148201  0.46793571  0.92714041     0.09800
Br1649     Br  0.06945329  0.47977274  0.87164812    -0.05800
Br1650     Br  0.11990338  0.41153930  0.91091499    -0.02700
Br1651     Br  0.07644153  0.50145117  0.95960262     0.00100
Br1652     Br  0.03662977  0.44438705  0.89651682    -0.04300
C1653       C  0.94744503  0.46095156  0.97020829    -0.11700
C1654       C  0.94670086  0.45605208  0.95072525     0.03800
C1655       C  0.93265396  0.44382821  0.94417628    -0.12200
C1656       C  0.91910145  0.43619768  0.95644983     0.18700
C1657       C  0.91986419  0.44073337  0.97582330    -0.09300
C1658       C  0.93390068  0.45300348  0.98252742    -0.02200
H1659       H  0.93240088  0.44004784  0.92931256     0.05200
C1660       C  0.90495714  0.42290318  0.94859797     0.20600
H1661       H  0.93406472  0.45645965  0.99745800     0.10400
C1662       C  0.90596548  0.40376768  0.95345492    -0.15600
C1663       C  0.89458846  0.39036939  0.94438511     0.03400
C1664       C  0.88187066  0.39609248  0.93006237    -0.10900
C1665       C  0.88066655  0.41529935  0.92550748    -0.00900
C1666       C  0.89194914  0.42867357  0.93469614    -0.06100
H1667       H  0.91623794  0.39912904  0.96380257     0.06400
H1668       H  0.87098353  0.41994887  0.91467553     0.09800
Br1669     Br  0.90173163  0.43097338  0.99353603    -0.05800
Br1670     Br  0.96456982  0.46455427  0.93198077    -0.02700
Br1671     Br  0.89878581  0.36437428  0.95075845     0.00100
Br1672     Br  0.88907928  0.45469110  0.92781559    -0.04300
C1673       C  0.05067527  0.30572329  0.80630617    -0.11700
C1674       C  0.05774064  0.31919059  0.79322397     0.03800
C1675       C  0.06965813  0.33379627  0.79948854    -0.12200
C1676       C  0.07497061  0.33530892  0.81856759     0.18700
C1677       C  0.06845176  0.32168362  0.83147187    -0.09300
C1678       C  0.05651926  0.30718821  0.82534843    -0.02200
H1679       H  0.07464795  0.34421711  0.78942944     0.05200
C1680       C  0.08696422  0.35135328  0.82490522     0.20600
H1681       H  0.05170594  0.29703506  0.83575279     0.10400
C1682       C  0.07924972  0.36509089  0.83697867    -0.15600
C1683       C  0.09016413  0.38032228  0.84342505     0.03400
C1684       C  0.10928886  0.38199544  0.83784142    -0.10900
C1685       C  0.11690279  0.36828852  0.82561096    -0.00900
C1686       C  0.10595362  0.35312494  0.81914210    -0.06100
H1687       H  0.06456716  0.36402937  0.84127538     0.06400
H1688       H  0.13156579  0.36923913  0.82123457     0.09800
Br1689     Br  0.07575930  0.32201657  0.85762511    -0.05800
Br1690     Br  0.05150970  0.31910525  0.76679163    -0.02700
Br1691     Br  0.07766340  0.39896800  0.85861564     0.00100
Br1692     Br  0.11774932  0.33483294  0.80297981    -0.04300
C1693       C  0.89313473  0.35626634  0.87960430    -0.11700
C1694       C  0.91209730  0.36158681  0.88290257     0.03800
C1695       C  0.92679903  0.35208988  0.87351358    -0.12200
C1696       C  0.92282748  0.33752740  0.86068285     0.18700
C1697       C  0.90391929  0.33326400  0.85631958    -0.09300
C1698       C  0.88931775  0.34266157  0.86565278    -0.02200
H1699       H  0.94135727  0.35555810  0.87676637     0.05200
C1700       C  0.93820193  0.32571261  0.85297155     0.20600
H1701       H  0.87484708  0.33847939  0.86284209     0.10400
C1702       C  0.94418247  0.30990982  0.86332248    -0.15600
C1703       C  0.95589498  0.29626709  0.85502451     0.03400
C1704       C  0.96145674  0.29825623  0.83597367    -0.10900
C1705       C  0.95626871  0.31460886  0.82601998    -0.00900
C1706       C  0.94491515  0.32838299  0.83444378    -0.06100
H1707       H  0.93897565  0.30773809  0.87759231     0.06400
H1708       H  0.96077456  0.31649753  0.81147008     0.09800
Br1709     Br  0.89735665  0.31353611  0.83889565    -0.05800
Br1710     Br  0.91894965  0.38040097  0.90107233    -0.02700
Br1711     Br  0.96231605  0.27442381  0.86965465     0.00100
Br1712     Br  0.93823129  0.35023944  0.81996141    -0.04300
C1713       C  0.80693253  0.45561476  0.80442280    -0.11700
C1714       C  0.79528939  0.45192252  0.82034842     0.03800
C1715       C  0.80158910  0.43967145  0.83465936    -0.12200
C1716       C  0.81939180  0.43100017  0.83350985     0.18700
C1717       C  0.83092008  0.43456137  0.81768357    -0.09300
C1718       C  0.82469993  0.44669339  0.80340504    -0.02200
H1719       H  0.79267662  0.43710228  0.84688560     0.05200
C1720       C  0.82603512  0.41845108  0.84893213     0.20600
H1721       H  0.83395814  0.44923338  0.79143277     0.10400
C1722       C  0.82575165  0.39885474  0.84623216    -0.15600
C1723       C  0.83331839  0.38664625  0.85983634     0.03400
C1724       C  0.84136743  0.39400259  0.87656656    -0.10900
C1725       C  0.84156430  0.41360861  0.87927550    -0.00900
C1726       C  0.83393334  0.42580831  0.86566788    -0.06100
H1727       H  0.81997425  0.39306427  0.83328198     0.06400
H1728       H  0.84750934  0.41946948  0.89206729     0.09800
Br1729     Br  0.85562742  0.42362805  0.81530800    -0.05800
Br1730     Br  0.77132884  0.46404144  0.82417645    -0.02700
Br1731     Br  0.83336147  0.36013681  0.85427000     0.00100
Br1732     Br  0.83507021  0.45244948  0.87021549    -0.04300
C1733       C  0.83772852  0.54673146  0.78941692    -0.11700
C1734       C  0.83085193  0.55326075  0.80698139     0.03800
C1735       C  0.84139651  0.56619949  0.81745944    -0.12200
C1736       C  0.85873262  0.57293880  0.81066200     0.18700
C1737       C  0.86608167  0.56581249  0.79353430    -0.09300
C1738       C  0.85558968  0.55268131  0.78307223    -0.02200
H1739       H  0.83580285  0.57144020  0.83074731     0.05200
C1740       C  0.86823441  0.58813891  0.82127918     0.20600
H1741       H  0.86103875  0.54769104  0.76963170     0.10400
C1742       C  0.87701874  0.58402596  0.83851543    -0.15600
C1743       C  0.88544606  0.59827708  0.84936865     0.03400
C1744       C  0.88504473  0.61721603  0.84296659    -0.10900
C1745       C  0.87544964  0.62120200  0.82595975    -0.00900
C1746       C  0.86723896  0.60692769  0.81513410    -0.06100
H1747       H  0.87743581  0.56957050  0.84347304     0.06400
H1748       H  0.87438256  0.63558527  0.82092010     0.09800
Br1749     Br  0.89008124  0.57395447  0.78376852    -0.05800
Br1750     Br  0.80725447  0.54475514  0.81746746    -0.02700
Br1751     Br  0.89772232  0.59019110  0.87204795     0.00100
Br1752     Br  0.85445064  0.61382483  0.79222534    -0.04300
C1753       C  0.19415757  0.31187320  0.04953916    -0.11700
C1754       C  0.17470770  0.30766396  0.04754784     0.03800
C1755       C  0.16143315  0.31592797  0.05979914    -0.12200
C1756       C  0.16708930  0.32844701  0.07412526     0.18700
C1757       C  0.18648561  0.33229557  0.07641994    -0.09300
C1758       C  0.19975681  0.32402621  0.06426823    -0.02200
H1759       H  0.14658040  0.31254229  0.05817112     0.05200
C1760       C  0.15262791  0.33698614  0.08679771     0.20600
H1761       H  0.21453615  0.32767607  0.06598813     0.10400
C1762       C  0.15232060  0.33204195  0.10601543    -0.15600
C1763       C  0.13875811  0.33957028  0.11835392     0.03400
C1764       C  0.12476337  0.35198246  0.11141522    -0.10900
C1765       C  0.12539633  0.35730997  0.09228139    -0.00900
C1766       C  0.13917676  0.34997693  0.08001763    -0.06100
H1767       H  0.16280635  0.32235280  0.11147741     0.06400
H1768       H  0.11494419  0.36699941  0.08675970     0.09800
Br1769     Br  0.19551811  0.34954883  0.09529905    -0.05800
Br1770     Br  0.16539917  0.29016435  0.02903050    -0.02700
Br1771     Br  0.14099509  0.33339163  0.14471522     0.00100
Br1772     Br  0.13943684  0.35854975  0.05427234    -0.04300
C1773       C  0.20591573  0.34374284  0.95652858    -0.11700
C1774       C  0.18639145  0.34664249  0.95950630     0.03800
C1775       C  0.17544795  0.35502483  0.94534970    -0.12200
C1776       C  0.18362755  0.36026596  0.92804972     0.18700
C1777       C  0.20304902  0.35707255  0.92495724    -0.09300
C1778       C  0.21406916  0.34904881  0.93922660    -0.02200
H1779       H  0.16058481  0.35771215  0.94792839     0.05200
C1780       C  0.17229410  0.37068470  0.91402147     0.20600
H1781       H  0.22893516  0.34641741  0.93659067     0.10400
C1782       C  0.17602637  0.38990875  0.91158172    -0.15600
C1783       C  0.16687480  0.40021963  0.89756789     0.03400
C1784       C  0.15387819  0.39116760  0.88541326    -0.10900
C1785       C  0.14926937  0.37217166  0.88856327    -0.00900
C1786       C  0.15835093  0.36189243  0.90284341    -0.06100
H1787       H  0.18627436  0.39689083  0.92057109     0.06400
H1788       H  0.13905038  0.36519502  0.87954447     0.09800
Br1789     Br  0.21493043  0.36286389  0.90119575    -0.05800
Br1790     Br  0.17421129  0.34022228  0.98295882    -0.02700
Br1791     Br  0.17196135  0.42684335  0.89648797     0.00100
Br1792     Br  0.15190505  0.33581694  0.90605911    -0.04300
C1793       C  0.88697771  0.12999653  0.83991950    -0.11700
C1794       C  0.87997886  0.14446676  0.82812352     0.03800
C1795       C  0.89234036  0.15802724  0.82064907    -0.12200
C1796       C  0.91175697  0.15737379  0.82451766     0.18700
C1797       C  0.91874977  0.14300543  0.83637262    -0.09300
C1798       C  0.90635329  0.12955845  0.84408841    -0.02200
H1799       H  0.88677584  0.16918664  0.81180647     0.05200
C1800       C  0.92425410  0.17244037  0.81693121     0.20600
H1801       H  0.91192191  0.11845934  0.85300782     0.10400
C1802       C  0.92511251  0.18975657  0.82645054    -0.15600
C1803       C  0.93688130  0.20432765  0.82000230     0.03400
C1804       C  0.94813024  0.20174826  0.80364638    -0.10900
C1805       C  0.94718360  0.18437897  0.79405682    -0.00900
C1806       C  0.93519449  0.16987787  0.80043801    -0.06100
H1807       H  0.91679213  0.19183117  0.83917868     0.06400
H1808       H  0.95575846  0.18210364  0.78153810     0.09800
Br1809     Br  0.94511729  0.14120755  0.84232033    -0.05800
Br1810     Br  0.85355545  0.14687508  0.82242044    -0.02700
Br1811     Br  0.93815663  0.22683002  0.83507899     0.00100
Br1812     Br  0.93399515  0.14688883  0.78617529    -0.04300
C1813       C  0.89074839  0.08029762  0.88262231    -0.11700
C1814       C  0.89077979  0.08401393  0.90228078     0.03800
C1815       C  0.90394507  0.07510699  0.91402364    -0.12200
C1816       C  0.91711705  0.06232797  0.90665312     0.18700
C1817       C  0.91711845  0.05846802  0.88713613    -0.09300
C1818       C  0.90407658  0.06746769  0.87530389    -0.02200
H1819       H  0.90373074  0.07794127  0.92909449     0.05200
C1820       C  0.93052755  0.05304645  0.91970435     0.20600
H1821       H  0.90424458  0.06429974  0.86030361     0.10400
C1822       C  0.92445154  0.03757574  0.93050333    -0.15600
C1823       C  0.93644104  0.02915649  0.94381967     0.03400
C1824       C  0.95491889  0.03626407  0.94648330    -0.10900
C1825       C  0.96089585  0.05181263  0.93562331    -0.00900
C1826       C  0.94890485  0.06015641  0.92231557    -0.06100
H1827       H  0.91017823  0.03226998  0.92881481     0.06400
H1828       H  0.97496205  0.05757118  0.93755028     0.09800
Br1829     Br  0.93431485  0.04060598  0.87621368    -0.05800
Br1830     Br  0.87237675  0.09964682  0.91448429    -0.02700
Br1831     Br  0.92619660  0.00917100  0.95905650     0.00100
Br1832     Br  0.95793896  0.08160793  0.90840765    -0.04300
C1833       C  0.84001533  0.07520976  0.83269043    -0.11700
C1834       C  0.82700927  0.06260396  0.84145581     0.03800
C1835       C  0.81316686  0.05361399  0.83069669    -0.12200
C1836       C  0.81233510  0.05600985  0.81107895     0.18700
C1837       C  0.82640839  0.06673508  0.80199507    -0.09300
C1838       C  0.84004229  0.07620393  0.81272758    -0.02200
H1839       H  0.80250244  0.04521241  0.83782774     0.05200
C1840       C  0.79559834  0.04882140  0.80083649     0.20600
H1841       H  0.85029845  0.08447561  0.80509561     0.10400
C1842       C  0.78355326  0.06180999  0.79195055    -0.15600
C1843       C  0.76654077  0.05596083  0.78379926     0.03400
C1844       C  0.76116376  0.03687555  0.78485669    -0.10900
C1845       C  0.77320109  0.02386979  0.79367626    -0.00900
C1846       C  0.79039832  0.02964282  0.80146877    -0.06100
H1847       H  0.78719100  0.07666010  0.79177219     0.06400
H1848       H  0.76934570  0.00907939  0.79421683     0.09800
Br1849     Br  0.82754411  0.06891795  0.77493368    -0.05800
Br1850     Br  0.82633417  0.05760627  0.86824037    -0.02700
Br1851     Br  0.75061242  0.07475021  0.77258751     0.00100
Br1852     Br  0.80649627  0.01074029  0.81228185    -0.04300
C1853       C  0.02840997  0.95842802  0.95367439    -0.11700
C1854       C  0.01818587  0.94204608  0.94835960     0.03800
C1855       C  0.02643735  0.92865135  0.93620389    -0.12200
C1856       C  0.04493190  0.93096480  0.92935398     0.18700
C1857       C  0.05527486  0.94700796  0.93487546    -0.09300
C1858       C  0.04704535  0.96050660  0.94684380    -0.02200
H1859       H  0.01846343  0.91619733  0.93227578     0.05200
C1860       C  0.05328867  0.91653893  0.91650961     0.20600
H1861       H  0.05529048  0.97279924  0.95071128     0.10400
C1862       C  0.05034119  0.91791264  0.89692490    -0.15600
C1863       C  0.05863661  0.90497885  0.88435471     0.03400
C1864       C  0.07014496  0.89027424  0.89133600    -0.10900
C1865       C  0.07309078  0.88894609  0.91093471    -0.00900
C1866       C  0.06464189  0.90179318  0.92348805    -0.06100
H1867       H  0.04180702  0.92930481  0.89137019     0.06400
H1868       H  0.08193085  0.87779533  0.91650877     0.09800
Br1869     Br  0.08075697  0.95100577  0.92638139    -0.05800
Br1870     Br  0.99349615  0.93628708  0.95816733    -0.02700
Br1871     Br  0.05486326  0.90889722  0.85774824     0.00100
Br1872     Br  0.06893104  0.89871879  0.95008225    -0.04300
C1873       C  0.88242704  0.90437056  0.06964959    -0.11700
C1874       C  0.88546896  0.92333885  0.07519803     0.03800
C1875       C  0.89845417  0.93462534  0.06535653    -0.12200
C1876       C  0.90875518  0.92750550  0.05001509     0.18700
C1877       C  0.90605230  0.90863859  0.04453773    -0.09300
C1878       C  0.89296566  0.89731454  0.05423076    -0.02200
H1879       H  0.90063666  0.94910395  0.06977784     0.05200
C1880       C  0.92313147  0.93971065  0.04084703     0.20600
H1881       H  0.89144482  0.88271607  0.04998049     0.10400
C1882       C  0.94021981  0.94292735  0.05025960    -0.15600
C1883       C  0.95396740  0.95492737  0.04262220     0.03400
C1884       C  0.95067921  0.96424061  0.02523834    -0.10900
C1885       C  0.93365025  0.96067609  0.01561335    -0.00900
C1886       C  0.91988228  0.94861653  0.02334031    -0.06100
H1887       H  0.94289841  0.93597993  0.06364453     0.06400
H1888       H  0.93081891  0.96766854  0.00229049     0.09800
Br1889     Br  0.92060029  0.89753786  0.02449901    -0.05800
Br1890     Br  0.87230568  0.93535105  0.09553815    -0.02700
Br1891     Br  0.97733544  0.95700368  0.05618457     0.00100
Br1892     Br  0.89657297  0.94525177  0.00994316    -0.04300
C1893       C  0.92282061  0.12728669  0.10451121    -0.11700
C1894       C  0.91752622  0.10839987  0.10033622     0.03800
C1895       C  0.92796898  0.09788204  0.08725584    -0.12200
C1896       C  0.94428776  0.10514248  0.07868706     0.18700
C1897       C  0.94943755  0.12396793  0.08234327    -0.09300
C1898       C  0.93861739  0.13487546  0.09488398    -0.02200
H1899       H  0.92378541  0.08345807  0.08434055     0.05200
C1900       C  0.95586526  0.09237424  0.06664462     0.20600
H1901       H  0.94287029  0.14934305  0.09734087     0.10400
C1902       C  0.95825857  0.09625743  0.04732872    -0.15600
C1903       C  0.96743037  0.08343665  0.03526593     0.03400
C1904       C  0.97411050  0.06596780  0.04247527    -0.10900
C1905       C  0.97220385  0.06255010  0.06202143    -0.00900
C1906       C  0.96334980  0.07551393  0.07401930    -0.06100
H1907       H  0.95251940  0.10915706  0.04148749     0.06400
H1908       H  0.97749743  0.04958402  0.06811654     0.09800
Br1909     Br  0.97175435  0.13508431  0.07158146    -0.05800
Br1910     Br  0.89778587  0.09456207  0.11279494    -0.02700
Br1911     Br  0.96946361  0.09077153  0.00915674     0.00100
Br1912     Br  0.96202168  0.06953388  0.10051500    -0.04300
C1913       C  0.10769794  0.93506180  0.11371011    -0.11700
C1914       C  0.10235075  0.92940318  0.09512527     0.03800
C1915       C  0.09031530  0.94080961  0.08433370    -0.12200
C1916       C  0.08316388  0.95782802  0.09135426     0.18700
C1917       C  0.08735915  0.96299237  0.11006166    -0.09300
C1918       C  0.09927313  0.95164718  0.12100449    -0.02200
H1919       H  0.08663542  0.93646594  0.07009753     0.05200
C1920       C  0.07117815  0.96966243  0.07884910     0.20600
H1921       H  0.10201761  0.95608039  0.13538924     0.10400
C1922       C  0.05205663  0.97233764  0.08328903    -0.15600
C1923       C  0.03991046  0.98181065  0.07086402     0.03400
C1924       C  0.04673281  0.98825473  0.05305587    -0.10900
C1925       C  0.06618586  0.98629658  0.04916823    -0.00900
C1926       C  0.07834441  0.97732110  0.06190587    -0.06100
H1927       H  0.04644270  0.96668490  0.09639885     0.06400
H1928       H  0.07203726  0.99157878  0.03601474     0.09800
Br1929     Br  0.07797008  0.98589614  0.12106321    -0.05800
Br1930     Br  0.11055212  0.90702067  0.08236988    -0.02700
Br1931     Br  0.01431882  0.98487645  0.07947711     0.00100
Br1932     Br  0.10474937  0.97610132  0.05567499    -0.04300
C1933       C  0.03863652  0.21200841  0.83852690    -0.11700
C1934       C  0.03619056  0.19234689  0.84044757     0.03800
C1935       C  0.05034705  0.18148459  0.84891478    -0.12200
C1936       C  0.06698260  0.18994338  0.85560281     0.18700
C1937       C  0.06908563  0.20968175  0.85433057    -0.09300
C1938       C  0.05491437  0.22053122  0.84595473    -0.02200
H1939       H  0.04852309  0.16634783  0.84999476     0.05200
C1940       C  0.08231643  0.17805796  0.86328268     0.20600
H1941       H  0.05700469  0.23560751  0.84451151     0.10400
C1942       C  0.09978854  0.17762408  0.85380162    -0.15600
C1943       C  0.11532420  0.16846590  0.86175681     0.03400
C1944       C  0.11333298  0.15916422  0.87919994    -0.10900
C1945       C  0.09561725  0.15849241  0.88809544    -0.00900
C1946       C  0.08013374  0.16795599  0.88033026    -0.06100
H1947       H  0.10151495  0.18507378  0.84052065     0.06400
H1948       H  0.09408709  0.15143593  0.90162032     0.09800
Br1949     Br  0.09114186  0.22249456  0.86362321    -0.05800
Br1950     Br  0.01361741  0.17974820  0.83219510    -0.02700
Br1951     Br  0.13910386  0.16954932  0.84869392     0.00100
Br1952     Br  0.05686328  0.16799218  0.89434326    -0.04300
C1953       C  0.11922093  0.11688894  0.92454520    -0.11700
C1954       C  0.11707980  0.09759599  0.92009660     0.03800
C1955       C  0.10350736  0.08675162  0.92960381    -0.12200
C1956       C  0.09188743  0.09479861  0.94350178     0.18700
C1957       C  0.09398703  0.11400068  0.94801905    -0.09300
C1958       C  0.10758574  0.12487163  0.93858272    -0.02200
H1959       H  0.10205477  0.07191507  0.92621275     0.05200
C1960       C  0.07788364  0.08277365  0.95328978     0.20600
H1961       H  0.10892559  0.13969595  0.94206553     0.10400
C1962       C  0.08377284  0.07138528  0.96836346    -0.15600
C1963       C  0.07107562  0.05918985  0.97744978     0.03400
C1964       C  0.05208235  0.05823481  0.97137253    -0.10900
C1965       C  0.04618262  0.06998508  0.95648038    -0.00900
C1966       C  0.05893040  0.08208533  0.94737753    -0.06100
H1967       H  0.09833480  0.07199127  0.97306006     0.06400
H1968       H  0.03168979  0.06942162  0.95156991     0.09800
Br1969     Br  0.07863703  0.12585713  0.96700409    -0.05800
Br1970     Br  0.13293093  0.08490512  0.90210743    -0.02700
Br1971     Br  0.08030031  0.04498665  0.99862419     0.00100
Br1972     Br  0.05005659  0.09700721  0.92657124    -0.04300
C1973       C  0.17004025  0.16882648  0.91993206    -0.11700
C1974       C  0.18105140  0.18119227  0.90842163     0.03800
C1975       C  0.19139522  0.19588711  0.91661040    -0.12200
C1976       C  0.19105678  0.19884582  0.93612730     0.18700
C1977       C  0.18067707  0.18657308  0.94773935    -0.09300
C1978       C  0.17047232  0.17169001  0.93972982    -0.02200
H1979       H  0.19935699  0.20542716  0.90762858     0.05200
C1980       C  0.20062521  0.21551410  0.94407876     0.20600
H1981       H  0.16246483  0.16304190  0.94934163     0.10400
C1982       C  0.19029539  0.23218262  0.94641441    -0.15600
C1983       C  0.19853162  0.24805372  0.95475763     0.03400
C1984       C  0.21740842  0.24723094  0.96123754    -0.10900
C1985       C  0.22794138  0.23069433  0.95813401    -0.00900
C1986       C  0.21968844  0.21491852  0.94957108    -0.06100
H1987       H  0.17572642  0.23281108  0.94174215     0.06400
H1988       H  0.24250517  0.22986146  0.96277634     0.09800
Br1989     Br  0.17944310  0.19015993  0.97464693    -0.05800
Br1990     Br  0.18205750  0.17982314  0.88124211    -0.02700
Br1991     Br  0.18357427  0.27064559  0.95582923     0.00100
Br1992     Br  0.23474214  0.19273638  0.94589893    -0.04300
C1993       C  0.33315668  0.08573851  0.66172162    -0.11700
C1994       C  0.33927235  0.07375852  0.67664522     0.03800
C1995       C  0.32600122  0.06426906  0.68801878    -0.12200
C1996       C  0.30657073  0.06670234  0.68519005     0.18700
C1997       C  0.30036906  0.07924910  0.67124417    -0.09300
C1998       C  0.31344911  0.08871382  0.65991598    -0.02200
H1999       H  0.33085709  0.05491454  0.69910214     0.05200
C2000       C  0.29265868  0.05619362  0.69672642     0.20600
H2001       H  0.30757896  0.09855593  0.65001512     0.10400
C2002       C  0.28402374  0.06518398  0.71213500    -0.15600
C2003       C  0.26888299  0.05672602  0.72173288     0.03400
C2004       C  0.26216828  0.03882520  0.71592881    -0.10900
C2005       C  0.27112718  0.02975415  0.70064312    -0.00900
C2006       C  0.28624799  0.03828088  0.69108896    -0.06100
H2007       H  0.28862548  0.07918274  0.71623544     0.06400
H2008       H  0.26627326  0.01601286  0.69600572     0.09800
Br2009     Br  0.27393841  0.08375415  0.66693574    -0.05800
Br2010     Br  0.36547461  0.06987608  0.68267028    -0.02700
Br2011     Br  0.25698579  0.07122789  0.74139236     0.00100
Br2012     Br  0.29722819  0.02541523  0.66985839    -0.04300
C2013       C  0.19041808  0.05275709  0.79984253    -0.11700
C2014       C  0.17827850  0.04734437  0.81477402     0.03800
C2015       C  0.17293136  0.06051760  0.82848175    -0.12200
C2016       C  0.17919602  0.07923336  0.82744293     0.18700
C2017       C  0.19119568  0.08474933  0.81248261    -0.09300
C2018       C  0.19689436  0.07146149  0.79891374    -0.02200
H2019       H  0.16380224  0.05615513  0.84002408     0.05200
C2020       C  0.17338432  0.09249800  0.84250241     0.20600
H2021       H  0.20605452  0.07582655  0.78740282     0.10400
C2022       C  0.18221487  0.09143816  0.86021182    -0.15600
C2023       C  0.17639472  0.10296816  0.87520922     0.03400
C2024       C  0.16141771  0.11582874  0.87256682    -0.10900
C2025       C  0.15240836  0.11662508  0.85490513    -0.00900
C2026       C  0.15831370  0.10515718  0.83990612    -0.06100
H2027       H  0.19350838  0.08137660  0.86243830     0.06400
H2028       H  0.14078206  0.12629220  0.85271530     0.09800
Br2029     Br  0.20001413  0.11022723  0.81006699    -0.05800
Br2030     Br  0.16920828  0.02193470  0.81758661    -0.02700
Br2031     Br  0.18838532  0.09942450  0.89928933     0.00100
Br2032     Br  0.14511292  0.10691054  0.81629898    -0.04300
C2033       C  0.12034736  0.89407687  0.85150790    -0.11700
C2034       C  0.13618920  0.88974251  0.84021767     0.03800
C2035       C  0.14591801  0.90416057  0.83089671    -0.12200
C2036       C  0.14034965  0.92306191  0.83287464     0.18700
C2037       C  0.12526691  0.92747367  0.84522914    -0.09300
C2038       C  0.11541822  0.91297936  0.85446211    -0.02200
H2039       H  0.15743680  0.90051125  0.82144996     0.05200
C2040       C  0.14932220  0.93745451  0.82050859     0.20600
H2041       H  0.10322381  0.91640684  0.86311683     0.10400
C2042       C  0.13813076  0.94716028  0.80731715    -0.15600
C2043       C  0.14628107  0.95909428  0.79375056     0.03400
C2044       C  0.16612993  0.96116313  0.79293887    -0.10900
C2045       C  0.17723953  0.95177762  0.80649368    -0.00900
C2046       C  0.16905113  0.94013892  0.82021473    -0.06100
H2047       H  0.12297109  0.94494063  0.80715700     0.06400
H2048       H  0.19247313  0.95345756  0.80642719     0.09800
Br2049     Br  0.11725430  0.95294405  0.84958440    -0.05800
Br2050     Br  0.14472385  0.86428431  0.83666034    -0.02700
Br2051     Br  0.12955605  0.97091594  0.77601389     0.00100
Br2052     Br  0.18546619  0.92838531  0.83832196    -0.04300
C2053       C  0.78132719  0.26647756  0.96318108    -0.11700
C2054       C  0.77711554  0.27397807  0.94512302     0.03800
C2055       C  0.78762516  0.28921267  0.93807157    -0.12200
C2056       C  0.80237682  0.29716331  0.94863347     0.18700
C2057       C  0.80651761  0.28987398  0.96662394    -0.09300
C2058       C  0.79604782  0.27470280  0.97374503    -0.02200
H2059       H  0.78465871  0.29454802  0.92402174     0.05200
C2060       C  0.81449912  0.31173882  0.93987804     0.20600
H2061       H  0.79949553  0.26929077  0.98764882     0.10400
C2062       C  0.81149186  0.33085306  0.94377469    -0.15600
C2063       C  0.82280941  0.34483457  0.93537654     0.03400
C2064       C  0.83779116  0.33978122  0.92288203    -0.10900
C2065       C  0.84031484  0.32034234  0.91902984    -0.00900
C2066       C  0.82899870  0.30655539  0.92741620    -0.06100
H2067       H  0.80017387  0.33491741  0.95329292     0.06400
H2068       H  0.85069313  0.31521173  0.90921583     0.09800
Br2069     Br  0.82685010  0.29974759  0.98159581    -0.05800
Br2070     Br  0.75836836  0.26327358  0.92868675    -0.02700
Br2071     Br  0.81652083  0.37052267  0.94141061     0.00100
Br2072     Br  0.83393398  0.28059495  0.92139264    -0.04300
C2073       C  0.79575689  0.20187549  0.05029604    -0.11700
C2074       C  0.79110268  0.19014845  0.06585313     0.03800
C2075       C  0.80538725  0.18364240  0.07793909    -0.12200
C2076       C  0.82441365  0.18834203  0.07475100     0.18700
C2077       C  0.82907483  0.19988016  0.05918847    -0.09300
C2078       C  0.81484357  0.20654484  0.04721475    -0.02200
H2079       H  0.80169871  0.17441228  0.08960139     0.05200
C2080       C  0.83929640  0.18041666  0.08722744     0.20600
H2081       H  0.81877298  0.21533180  0.03529102     0.10400
C2082       C  0.85237684  0.16759474  0.07967795    -0.15600
C2083       C  0.86723240  0.16051552  0.09063747     0.03400
C2084       C  0.86894156  0.16585317  0.10984617    -0.10900
C2085       C  0.85553846  0.17842903  0.11746638    -0.00900
C2086       C  0.84091100  0.18576298  0.10634648    -0.06100
H2087       H  0.85131670  0.16347622  0.06494817     0.06400
H2088       H  0.85655490  0.18275593  0.13213571     0.09800
Br2089     Br  0.85469288  0.20703364  0.05369027    -0.05800
Br2090     Br  0.76593312  0.18089487  0.07036285    -0.02700
Br2091     Br  0.88555421  0.14527654  0.07772008     0.00100
Br2092     Br  0.82411613  0.20381173  0.11760919    -0.04300
C2093       C  0.78475416  0.16683926  0.95727134    -0.11700
C2094       C  0.77692955  0.16123913  0.93981582     0.03800
C2095       C  0.78810664  0.15158877  0.92661811    -0.12200
C2096       C  0.80706574  0.14730770  0.93054824     0.18700
C2097       C  0.81479986  0.15264989  0.94809167    -0.09300
C2098       C  0.80370334  0.16250316  0.96121475    -0.02200
H2099       H  0.78209388  0.14769192  0.91307735     0.05200
C2100       C  0.81862674  0.13768602  0.91596527     0.20600
H2101       H  0.80987672  0.16677937  0.97456652     0.10400
C2102       C  0.83277276  0.14778414  0.90631193    -0.15600
C2103       C  0.84332805  0.13934945  0.89176107     0.03400
C2104       C  0.83987321  0.12039068  0.88678347    -0.10900
C2105       C  0.82584658  0.11029783  0.89674476    -0.00900
C2106       C  0.81521458  0.11877985  0.91107771    -0.06100
H2107       H  0.83528641  0.16244864  0.90982535     0.06400
H2108       H  0.82310588  0.09564997  0.89335497     0.09800
Br2109     Br  0.84028924  0.14639915  0.95483493    -0.05800
Br2110     Br  0.75159521  0.16781038  0.93268174    -0.02700
Br2111     Br  0.86099914  0.15489938  0.87829722     0.00100
Br2112     Br  0.79627802  0.10392618  0.92367717    -0.04300
C2113       C  0.04793399  0.81262056  0.19299865    -0.11700
C2114       C  0.06787974  0.81084504  0.19338409     0.03800
C2115       C  0.07927681  0.82512893  0.18567919    -0.12200
C2116       C  0.07126714  0.84128594  0.17755755     0.18700
C2117       C  0.05148922  0.84312198  0.17713963    -0.09300
C2118       C  0.04007913  0.82900702  0.18492553    -0.02200
H2119       H  0.09452075  0.82366657  0.18607742     0.05200
C2120       C  0.08377525  0.85601856  0.16951993     0.20600
H2121       H  0.02488115  0.83064662  0.18402237     0.10400
C2122       C  0.09416536  0.85215296  0.15306728    -0.15600
C2123       C  0.10662464  0.86552459  0.14538459     0.03400
C2124       C  0.10855667  0.88345303  0.15405584    -0.10900
C2125       C  0.09782031  0.88724268  0.17044964    -0.00900
C2126       C  0.08587713  0.87363967  0.17837708    -0.06100
H2127       H  0.09286286  0.83845206  0.14638933     0.06400
H2128       H  0.09898733  0.90078862  0.17744075     0.09800
Br2129     Br  0.03934205  0.86417659  0.16519010    -0.05800
Br2130     Br  0.08066103  0.78973416  0.20454215    -0.02700
Br2131     Br  0.12156299  0.85729302  0.12426740     0.00100
Br2132     Br  0.07372369  0.87929431  0.20202739    -0.04300
C2133       C  0.89131861  0.62868102  0.15563054    -0.11700
C2134       C  0.91082029  0.62923284  0.15147886     0.03800
C2135       C  0.92185062  0.64445426  0.15774186    -0.12200
C2136       C  0.91384052  0.65916202  0.16838516     0.18700
C2137       C  0.89440964  0.65846530  0.17277465    -0.09300
C2138       C  0.88340049  0.64327008  0.16653185    -0.02200
H2139       H  0.93680791  0.64477662  0.15439611     0.05200
C2140       C  0.92581692  0.67549508  0.17388485     0.20600
H2141       H  0.86843448  0.64304498  0.16985609     0.10400
C2142       C  0.93232735  0.68770630  0.15974090    -0.15600
C2143       C  0.94400885  0.70310152  0.16401147     0.03400
C2144       C  0.94933495  0.70677263  0.18307917    -0.10900
C2145       C  0.94264490  0.69438347  0.19721492    -0.00900
C2146       C  0.93124122  0.67880051  0.19274886    -0.06100
H2147       H  0.92835572  0.68513911  0.14515821     0.06400
H2148       H  0.94670380  0.69646225  0.21183568     0.09800
Br2149     Br  0.88206204  0.67831304  0.18648923    -0.05800
Br2150     Br  0.92339716  0.60905329  0.13853868    -0.02700
Br2151     Br  0.95197010  0.71795978  0.14265742     0.00100
Br2152     Br  0.92438076  0.66176965  0.21271991    -0.04300
C2153       C  0.96446361  0.80439054  0.15347957    -0.11700
C2154       C  0.94972315  0.79797130  0.14175130     0.03800
C2155       C  0.93836340  0.81099591  0.13227506    -0.12200
C2156       C  0.94178549  0.83047955  0.13360872     0.18700
C2157       C  0.95722604  0.83685942  0.14443313    -0.09300
C2158       C  0.96823064  0.82386178  0.15446529    -0.02200
H2159       H  0.92639154  0.80588072  0.12421692     0.05200
C2160       C  0.92804199  0.84363357  0.12483479     0.20600
H2161       H  0.97972265  0.82899633  0.16319029     0.10400
C2162       C  0.91774222  0.85611812  0.13639385    -0.15600
C2163       C  0.90197974  0.86583581  0.12937574     0.03400
C2164       C  0.89601175  0.86267081  0.11063144    -0.10900
C2165       C  0.90746914  0.85166004  0.09865814    -0.00900
C2166       C  0.92325259  0.84213799  0.10556832    -0.06100
H2167       H  0.92132892  0.85752509  0.15122329     0.06400
H2168       H  0.90352554  0.84964820  0.08398258     0.09800
Br2169     Br  0.96404018  0.86304518  0.14565669    -0.05800
Br2170     Br  0.94332942  0.77177327  0.13933273    -0.02700
Br2171     Br  0.88861394  0.88207516  0.14640122     0.00100
Br2172     Br  0.93723352  0.82659639  0.08823424    -0.04300
C2173       C  0.04169878  0.71927116  0.15750952    -0.11700
C2174       C  0.04523345  0.72139710  0.13792463     0.03800
C2175       C  0.05781406  0.70911691  0.12872645    -0.12200
C2176       C  0.06693159  0.69463795  0.13870229     0.18700
C2177       C  0.06295182  0.69213780  0.15802508    -0.09300
C2178       C  0.05051248  0.70438636  0.16724134    -0.02200
H2179       H  0.06096186  0.71122772  0.11386104     0.05200
C2180       C  0.08169511  0.68324262  0.12923208     0.20600
H2181       H  0.04780265  0.70230861  0.18219640     0.10400
C2182       C  0.10070442  0.68652882  0.13376764    -0.15600
C2183       C  0.11516486  0.67629989  0.12499782     0.03400
C2184       C  0.11071207  0.66246531  0.11131340    -0.10900
C2185       C  0.09167191  0.65911826  0.10699092    -0.00900
C2186       C  0.07718670  0.66925193  0.11585211    -0.06100
H2187       H  0.10430146  0.69720159  0.14415089     0.06400
H2188       H  0.08793165  0.64908613  0.09605289     0.09800
Br2189     Br  0.07424829  0.67214778  0.17237649    -0.05800
Br2190     Br  0.03470013  0.74163477  0.12334766    -0.02700
Br2191     Br  0.14073140  0.68164117  0.13241824     0.00100
Br2192     Br  0.05150168  0.66349986  0.10938866    -0.04300
C2193       C  0.65784312  0.11889402  0.11597748    -0.11700
C2194       C  0.67419212  0.13014322  0.11855706     0.03800
C2195       C  0.68292925  0.13868449  0.10302906    -0.12200
C2196       C  0.67560703  0.13667869  0.08476726     0.18700
C2197       C  0.65932497  0.12559558  0.08203135    -0.09300
C2198       C  0.65052664  0.11691354  0.09758221    -0.02200
H2199       H  0.69528025  0.14747058  0.10527647     0.05200
C2200       C  0.68469853  0.14736468  0.06920311     0.20600
H2201       H  0.63793250  0.10857742  0.09523444     0.10400
C2202       C  0.69598632  0.13799282  0.05585261    -0.15600
C2203       C  0.70666991  0.14811199  0.04247855     0.03400
C2204       C  0.70622547  0.16812337  0.04245717    -0.10900
C2205       C  0.69427825  0.17727843  0.05552444    -0.00900
C2206       C  0.68364818  0.16714266  0.06873554    -0.06100
H2207       H  0.69694957  0.12274793  0.05623454     0.06400
H2208       H  0.69329927  0.19252106  0.05568786     0.09800
Br2209     Br  0.64833214  0.12247293  0.05746094    -0.05800
Br2210     Br  0.68444589  0.13628897  0.14284852    -0.02700
Br2211     Br  0.72222897  0.13353942  0.02564630     0.00100
Br2212     Br  0.66797762  0.18097327  0.08608786    -0.04300
C2213       C  0.54492418  0.03690476  0.05520686    -0.11700
C2214       C  0.54295233  0.05556971  0.06225191     0.03800
C2215       C  0.55572694  0.06254259  0.07564427    -0.12200
C2216       C  0.57045821  0.05135536  0.08254158     0.18700
C2217       C  0.57195712  0.03253290  0.07635371    -0.09300
C2218       C  0.55935305  0.02550657  0.06275680    -0.02200
H2219       H  0.55421417  0.07690309  0.08067930     0.05200
C2220       C  0.58402056  0.05978659  0.09613258     0.20600
H2221       H  0.56102250  0.01110198  0.05793317     0.10400
C2222       C  0.57784598  0.06443024  0.11445588    -0.15600
C2223       C  0.59000114  0.07337872  0.12728551     0.03400
C2224       C  0.60863097  0.07785229  0.12183821    -0.10900
C2225       C  0.61481797  0.07323492  0.10355373    -0.00900
C2226       C  0.60263911  0.06444245  0.09065622    -0.06100
H2227       H  0.56347609  0.06120389  0.11872664     0.06400
H2228       H  0.62917307  0.07647259  0.09928823     0.09800
Br2229     Br  0.59071197  0.01581196  0.08640727    -0.05800
Br2230     Br  0.52281883  0.07233353  0.05514060    -0.02700
Br2231     Br  0.58051744  0.07960041  0.15195111     0.00100
Br2232     Br  0.61175235  0.05991659  0.06546134    -0.04300
C2233       C  0.65796850  0.04288443  0.79623055    -0.11700
C2234       C  0.66050923  0.04428986  0.81604394     0.03800
C2235       C  0.65121793  0.05841350  0.82629338    -0.12200
C2236       C  0.63895866  0.07102453  0.81728767     0.18700
C2237       C  0.63548272  0.06890460  0.79774739    -0.09300
C2238       C  0.64496525  0.05494926  0.78740162    -0.02200
H2239       H  0.65379725  0.05974767  0.84134322     0.05200
C2240       C  0.63084087  0.08698793  0.82815630     0.20600
H2241       H  0.64264898  0.05398204  0.77228023     0.10400
C2242       C  0.63629079  0.10539175  0.82332991    -0.15600
C2243       C  0.62807153  0.12096316  0.83219860     0.03400
C2244       C  0.61404621  0.11828464  0.84618013    -0.10900
C2245       C  0.60950644  0.09990139  0.85196427    -0.00900
C2246       C  0.61782675  0.08426384  0.84308429    -0.06100
H2247       H  0.64675670  0.10764694  0.81232863     0.06400
H2248       H  0.59875379  0.09768301  0.86269192     0.09800
Br2249     Br  0.61790154  0.08474330  0.78456811    -0.05800
Br2250     Br  0.67589280  0.02695441  0.83011135    -0.02700
Br2251     Br  0.63653184  0.14563069  0.82470274     0.00100
Br2252     Br  0.61001370  0.05955381  0.85091900    -0.04300
C2253       C  0.61790729  0.16726699  0.88889554    -0.11700
C2254       C  0.61482907  0.18321174  0.90050232     0.03800
C2255       C  0.62929964  0.18979712  0.91229053    -0.12200
C2256       C  0.64683679  0.18063061  0.91292531     0.18700
C2257       C  0.64974735  0.16446287  0.90168609    -0.09300
C2258       C  0.63536811  0.15796065  0.88978838    -0.02200
H2259       H  0.62673864  0.20188944  0.92131499     0.05200
C2260       C  0.66146663  0.18725929  0.92634579     0.20600
H2261       H  0.63796123  0.14573125  0.88095901     0.10400
C2262       C  0.66571288  0.17599661  0.94199653    -0.15600
C2263       C  0.67988814  0.18113476  0.95472290     0.03400
C2264       C  0.69030625  0.19806064  0.95190363    -0.10900
C2265       C  0.68547499  0.20970089  0.93653720    -0.00900
C2266       C  0.67121273  0.20441691  0.92380860    -0.06100
H2267       H  0.65796346  0.16298473  0.94425584     0.06400
H2268       H  0.69315972  0.22270062  0.93407552     0.09800
Br2269     Br  0.67326463  0.15099862  0.90181428    -0.05800
Br2270     Br  0.59079635  0.19567099  0.90202367    -0.02700
Br2271     Br  0.68349546  0.16436516  0.97582928     0.00100
Br2272     Br  0.66613557  0.22059156  0.90268438    -0.04300
C2273       C  0.52630673  0.06131438  0.95438543    -0.11700
C2274       C  0.54059341  0.05611960  0.94135738     0.03800
C2275       C  0.54806105  0.06958445  0.92893370    -0.12200
C2276       C  0.54163015  0.08825722  0.92925582     0.18700
C2277       C  0.52745942  0.09349821  0.94221576    -0.09300
C2278       C  0.52000701  0.08010005  0.95473272    -0.02200
H2279       H  0.55909250  0.06552655  0.91907546     0.05200
C2280       C  0.54984698  0.10196677  0.91581100     0.20600
H2281       H  0.50906787  0.08432751  0.96461677     0.10400
C2282       C  0.54321101  0.10234281  0.89716152    -0.15600
C2283       C  0.55137751  0.11433946  0.88368751     0.03400
C2284       C  0.56644152  0.12639526  0.88891176    -0.10900
C2285       C  0.57296416  0.12600974  0.90768300    -0.00900
C2286       C  0.56483399  0.11390467  0.92107602    -0.06100
H2287       H  0.53189042  0.09291939  0.89297318     0.06400
H2288       H  0.58455241  0.13507363  0.91193098     0.09800
Br2289     Br  0.51772086  0.11870548  0.94306014    -0.05800
Br2290     Br  0.55144647  0.03129127  0.94063542    -0.02700
Br2291     Br  0.54240991  0.11216180  0.85815888     0.00100
Br2292     Br  0.57500378  0.11363031  0.94621897    -0.04300
C2293       C  0.57182776  0.17478083  0.83505012    -0.11700
C2294       C  0.55720827  0.18755160  0.84020453     0.03800
C2295       C  0.54871247  0.19894836  0.82638334    -0.12200
C2296       C  0.55501726  0.19854433  0.80758229     0.18700
C2297       C  0.57049510  0.18725490  0.80272530    -0.09300
C2298       C  0.57892972  0.17591658  0.81634747    -0.02200
H2299       H  0.53716366  0.20819038  0.83030855     0.05200
C2300       C  0.54523295  0.20947714  0.79283679     0.20600
H2301       H  0.59145199  0.16844488  0.81197368     0.10400
C2302       C  0.55313536  0.22646261  0.78642434    -0.15600
C2303       C  0.54582836  0.23565349  0.77049625     0.03400
C2304       C  0.53020000  0.22779902  0.76079302    -0.10900
C2305       C  0.52215306  0.21095247  0.76761186    -0.00900
C2306       C  0.52955958  0.20179416  0.78341312    -0.06100
H2307       H  0.56552746  0.23216046  0.79338739     0.06400
H2308       H  0.51012045  0.20470685  0.76049655     0.09800
Br2309     Br  0.58047918  0.18655958  0.77742154    -0.05800
Br2310     Br  0.54868564  0.19108628  0.86579689    -0.02700
Br2311     Br  0.55897981  0.25778188  0.76189234     0.00100
Br2312     Br  0.51853548  0.17822149  0.79100004    -0.04300
C2313       C  0.38050734  0.11722836  0.07393386    -0.11700
C2314       C  0.38330910  0.09835661  0.07959962     0.03800
C2315       C  0.39685932  0.08721383  0.07038511    -0.12200
C2316       C  0.40798573  0.09464757  0.05572233     0.18700
C2317       C  0.40546774  0.11354051  0.05025407    -0.09300
C2318       C  0.39175097  0.12461645  0.05924500    -0.02200
H2319       H  0.39875525  0.07267385  0.07468447     0.05200
C2320       C  0.42212065  0.08247060  0.04626744     0.20600
H2321       H  0.39010325  0.13919744  0.05498116     0.10400
C2322       C  0.41678102  0.07182272  0.03042080    -0.15600
C2323       C  0.42975982  0.05993639  0.02131277     0.03400
C2324       C  0.44848957  0.05862229  0.02806756    -0.10900
C2325       C  0.45385229  0.06961739  0.04373128    -0.00900
C2326       C  0.44081721  0.08134597  0.05289885    -0.06100
H2327       H  0.40245701  0.07279778  0.02510983     0.06400
H2328       H  0.46813848  0.06873681  0.04916648     0.09800
Br2329     Br  0.42074122  0.12482274  0.03084143    -0.05800
Br2330     Br  0.36864276  0.08676723  0.09924483    -0.02700
Br2331     Br  0.42141252  0.04666441  0.99916665     0.00100
Br2332     Br  0.44901334  0.09537629  0.07460331    -0.04300
C2333       C  0.33041980  0.16979955  0.07616092    -0.11700
C2334       C  0.32266280  0.18533977  0.08628627     0.03800
C2335       C  0.31184352  0.19888346  0.07691873    -0.12200
C2336       C  0.30765156  0.19712635  0.05767611     0.18700
C2337       C  0.31393106  0.18107093  0.04782916    -0.09300
C2338       C  0.32518614  0.16764982  0.05699288    -0.02200
H2339       H  0.30689981  0.21111219  0.08468113     0.05200
C2340       C  0.29785860  0.21286339  0.04800774     0.20600
H2341       H  0.32955658  0.15558761  0.04883021     0.10400
C2342       C  0.30770817  0.22319819  0.03421628    -0.15600
C2343       C  0.29968490  0.23914979  0.02583978     0.03400
C2344       C  0.28143981  0.24513128  0.03135377    -0.10900
C2345       C  0.27160448  0.23479729  0.04520274    -0.00900
C2346       C  0.27959673  0.21871899  0.05342378    -0.06100
H2347       H  0.32193071  0.21907400  0.03027060     0.06400
H2348       H  0.25750872  0.23906544  0.04943263     0.09800
Br2349     Br  0.30705774  0.17664203  0.02194160    -0.05800
Br2350     Br  0.32637522  0.18949027  0.11295296    -0.02700
Br2351     Br  0.31495675  0.25289987  0.00802371     0.00100
Br2352     Br  0.26481193  0.20487446  0.07151775    -0.04300
C2353       C  0.47279986  0.95931960  0.04720946    -0.11700
C2354       C  0.48148983  0.94161746  0.05022574     0.03800
C2355       C  0.47259402  0.92813273  0.06173571    -0.12200
C2356       C  0.45503847  0.93187532  0.07017760     0.18700
C2357       C  0.44634402  0.94941444  0.06717470    -0.09300
C2358       C  0.45518801  0.96291393  0.05578917    -0.02200
H2359       H  0.47928070  0.91457503  0.06393874     0.05200
C2360       C  0.44606348  0.91756033  0.08244302     0.20600
H2361       H  0.44822846  0.97634857  0.05367282     0.10400
C2362       C  0.45040695  0.91740910  0.10175540    -0.15600
C2363       C  0.44122239  0.90500416  0.11412681     0.03400
C2364       C  0.42748702  0.89230302  0.10711342    -0.10900
C2365       C  0.42321708  0.89245222  0.08772417    -0.00900
C2366       C  0.43245833  0.90489676  0.07538036    -0.06100
H2367       H  0.46063300  0.92736341  0.10730207     0.06400
H2368       H  0.41264906  0.88286362  0.08217526     0.09800
Br2369     Br  0.42235139  0.95548867  0.07836061    -0.05800
Br2370     Br  0.50468446  0.93440419  0.03805416    -0.02700
Br2371     Br  0.44691924  0.90733323  0.14058993     0.00100
Br2372     Br  0.42595215  0.90438229  0.04905557    -0.04300
C2373       C  0.42208856  0.84436631  0.15981513    -0.11700
C2374       C  0.43295734  0.82871423  0.15341371     0.03800
C2375       C  0.44227141  0.81705181  0.16645052    -0.12200
C2376       C  0.44123882  0.82070924  0.18588221     0.18700
C2377       C  0.43104917  0.83634349  0.19233427    -0.09300
C2378       C  0.42172102  0.84792539  0.17951953    -0.02200
H2379       H  0.45043859  0.80514330  0.16140937     0.05200
C2380       C  0.45118667  0.80865593  0.19959591     0.20600
H2381       H  0.41469508  0.85986161  0.18561718     0.10400
C2382       C  0.46972301  0.81331512  0.20472054    -0.15600
C2383       C  0.47837413  0.80463257  0.22020884     0.03400
C2384       C  0.46828247  0.79114383  0.23098628    -0.10900
C2385       C  0.45008926  0.78574090  0.22507707    -0.00900
C2386       C  0.44150334  0.79444260  0.20955785    -0.06100
H2387       H  0.47726255  0.82419144  0.19699697     0.06400
H2388       H  0.44225659  0.77517263  0.23293120     0.09800
Br2389     Br  0.42979494  0.84273240  0.21875036    -0.05800
Br2390     Br  0.43619463  0.82253458  0.12709912    -0.02700
Br2391     Br  0.50416682  0.81134603  0.22541712     0.00100
Br2392     Br  0.41620099  0.78724966  0.20294873    -0.04300
C2393       C  0.65441904  0.89652252  0.87974997    -0.11700
C2394       C  0.67027628  0.90811978  0.88333530     0.03800
C2395       C  0.67781208  0.91932114  0.86886854    -0.12200
C2396       C  0.66964708  0.91947650  0.85082527     0.18700
C2397       C  0.65347695  0.90839792  0.84736801    -0.09300
C2398       C  0.64599216  0.89702591  0.86178607    -0.02200
H2399       H  0.68997630  0.92816657  0.87176138     0.05200
C2400       C  0.67784451  0.93183507  0.83604889     0.20600
H2401       H  0.63371451  0.88834522  0.85887511     0.10400
C2402       C  0.68892638  0.92402058  0.82154293    -0.15600
C2403       C  0.69696311  0.93545963  0.80743144     0.03400
C2404       C  0.69382880  0.95517411  0.80767450    -0.10900
C2405       C  0.68297780  0.96286477  0.82254530    -0.00900
C2406       C  0.67505444  0.95143171  0.83658040    -0.06100
H2407       H  0.69140951  0.90894771  0.82127245     0.06400
H2408       H  0.68018261  0.97787383  0.82307254     0.09800
Br2409     Br  0.64094844  0.90878208  0.82333366    -0.05800
Br2410     Br  0.68143840  0.91032123  0.90799034    -0.02700
Br2411     Br  0.71267601  0.92329876  0.78891158     0.00100
Br2412     Br  0.65994550  0.96314440  0.85587835    -0.04300
C2413       C  0.61293628  0.89940555  0.93057586    -0.11700
C2414       C  0.59993853  0.89431884  0.94491534     0.03800
C2415       C  0.58859192  0.90811791  0.95333361    -0.12200
C2416       C  0.58985053  0.92702026  0.94769982     0.18700
C2417       C  0.60284783  0.93214496  0.93344127    -0.09300
C2418       C  0.61414285  0.91832605  0.92488628    -0.02200
H2419       H  0.57844316  0.90403010  0.96409782     0.05200
C2420       C  0.57703977  0.94094001  0.95660453     0.20600
H2421       H  0.62408648  0.92239632  0.91392454     0.10400
C2422       C  0.57997418  0.94631857  0.97547892    -0.15600
C2423       C  0.56747161  0.95864105  0.98471141     0.03400
C2424       C  0.55147922  0.96568301  0.97499273    -0.10900
C2425       C  0.54878961  0.96026515  0.95598379    -0.00900
C2426       C  0.56127512  0.94799806  0.94685862    -0.06100
H2427       H  0.59208800  0.94087500  0.98306935     0.06400
H2428       H  0.53663455  0.96527491  0.94817114     0.09800
Br2429     Br  0.60594160  0.95785010  0.92555394    -0.05800
Br2430     Br  0.59586637  0.86860378  0.95249912    -0.02700
Br2431     Br  0.57364894  0.96567212  0.01020365     0.00100
Br2432     Br  0.55566470  0.94057004  0.92134261    -0.04300
C2433       C  0.39473080  0.93864208  0.88229827    -0.11700
C2434       C  0.38787559  0.95126451  0.89615430     0.03800
C2435       C  0.40047276  0.96008386  0.90855737    -0.12200
C2436       C  0.41991867  0.95634277  0.90772151     0.18700
C2437       C  0.42672969  0.94329780  0.89427751    -0.09300
C2438       C  0.41415010  0.93466861  0.88164438    -0.02200
H2439       H  0.39501630  0.96962511  0.91923163     0.05200
C2440       C  0.43243484  0.96518124  0.92200395     0.20600
H2441       H  0.41953784  0.92466366  0.87141902     0.10400
C2442       C  0.43002022  0.96030954  0.94108448    -0.15600
C2443       C  0.44092936  0.96874829  0.95525041     0.03400
C2444       C  0.45463294  0.98250078  0.95040938    -0.10900
C2445       C  0.45710302  0.98725545  0.93123664    -0.00900
C2446       C  0.44602191  0.97889868  0.91711516    -0.06100
H2447       H  0.41959913  0.94976610  0.94496798     0.06400
H2448       H  0.46745307  0.99781553  0.92723178     0.09800
Br2449     Br  0.45279848  0.93587667  0.89343163    -0.05800
Br2450     Br  0.36136390  0.95567977  0.90004591    -0.02700
Br2451     Br  0.43704033  0.95992943  0.98068709     0.00100
Br2452     Br  0.44929928  0.98739324  0.89153529    -0.04300
C2453       C  0.34020624  0.93545463  0.83619497    -0.11700
C2454       C  0.34444131  0.94314102  0.81810238     0.03800
C2455       C  0.32994491  0.95078309  0.80697346    -0.12200
C2456       C  0.31137672  0.95192726  0.81386491     0.18700
C2457       C  0.30754426  0.94626931  0.83249781    -0.09300
C2458       C  0.32185640  0.93855152  0.84350726    -0.02200
H2459       H  0.33318261  0.95595322  0.79290452     0.05200
C2460       C  0.29605423  0.95930441  0.80179319     0.20600
H2461       H  0.31834911  0.93546842  0.85803583     0.10400
C2462       C  0.28111187  0.94726242  0.79685229    -0.15600
C2463       C  0.26518371  0.95410716  0.78743230     0.03400
C2464       C  0.26426946  0.97335777  0.78228277    -0.10900
C2465       C  0.27952802  0.98526652  0.78686165    -0.00900
C2466       C  0.29527601  0.97842349  0.79659457    -0.06100
H2467       H  0.28151713  0.93257764  0.80108428     0.06400
H2468       H  0.27910670  0.00007345  0.78310857     0.09800
Br2469     Br  0.28302460  0.94927564  0.84389020    -0.05800
Br2470     Br  0.36965064  0.94482417  0.80800820    -0.02700
Br2471     Br  0.24457010  0.93675886  0.78391373     0.00100
Br2472     Br  0.31473605  0.99597033  0.80357500    -0.04300
C2473       C  0.21699437  0.74250348  0.02860952    -0.11700
C2474       C  0.21728888  0.73757113  0.04787612     0.03800
C2475       C  0.20758728  0.72149866  0.05403826    -0.12200
C2476       C  0.19808863  0.70971089  0.04116483     0.18700
C2477       C  0.19801292  0.71459439  0.02179986    -0.09300
C2478       C  0.20719912  0.73101817  0.01575755    -0.02200
H2479       H  0.20736653  0.71822864  0.06901327     0.05200
C2480       C  0.18757711  0.69309470  0.04852037     0.20600
H2481       H  0.20709712  0.73460401  0.00084898     0.10400
C2482       C  0.16813177  0.69160174  0.04515107    -0.15600
C2483       C  0.15731161  0.67737843  0.05357136     0.03400
C2484       C  0.16567047  0.66481563  0.06680936    -0.10900
C2485       C  0.18549695  0.66557636  0.06897606    -0.00900
C2486       C  0.19636789  0.67942108  0.05993466    -0.06100
H2487       H  0.16116405  0.70189449  0.03625622     0.06400
H2488       H  0.19294193  0.65564277  0.07771217     0.09800
Br2489     Br  0.18646149  0.69896786  0.00285567    -0.05800
Br2490     Br  0.22994772  0.75278246  0.06640451    -0.02700
Br2491     Br  0.13099906  0.67661182  0.04665504     0.00100
Br2492     Br  0.22328002  0.67887225  0.06352297    -0.04300
C2493       C  0.30671608  0.80795926  0.04483245    -0.11700
C2494       C  0.32489294  0.81192844  0.03767750     0.03800
C2495       C  0.33901545  0.81881276  0.04975332    -0.12200
C2496       C  0.33531940  0.82178512  0.06906651     0.18700
C2497       C  0.31736710  0.81688223  0.07637031    -0.09300
C2498       C  0.30322553  0.81011991  0.06424583    -0.02200
H2499       H  0.35271829  0.82248822  0.04392753     0.05200
C2500       C  0.34972158  0.83134808  0.08104393     0.20600
H2501       H  0.28926126  0.80719009  0.06987569     0.10400
C2502       C  0.34568950  0.84925105  0.08848351    -0.15600
C2503       C  0.35837293  0.85852604  0.10055359     0.03400
C2504       C  0.37584859  0.84999570  0.10518948    -0.10900
C2505       C  0.38011491  0.83233817  0.09703899    -0.00900
C2506       C  0.36725938  0.82300056  0.08521239    -0.06100
H2507       H  0.33228218  0.85586848  0.08523533     0.06400
H2508       H  0.39344832  0.82553088  0.10016278     0.09800
Br2509     Br  0.31143045  0.81941611  0.10276646    -0.05800
Br2510     Br  0.33071371  0.80888346  0.01132533    -0.02700
Br2511     Br  0.34977104  0.88183972  0.11127262     0.00100
Br2512     Br  0.37385786  0.79839502  0.07604967    -0.04300
C2513       C  0.12069166  0.84550409  0.89177266    -0.11700
C2514       C  0.11785110  0.82985382  0.90379263     0.03800
C2515       C  0.13292689  0.82276122  0.91448626    -0.12200
C2516       C  0.15095910  0.83101852  0.91346994     0.18700
C2517       C  0.15380089  0.84662375  0.90146664    -0.09300
C2518       C  0.13872464  0.85379209  0.89088294    -0.02200
H2519       H  0.13053283  0.81087635  0.92382971     0.05200
C2520       C  0.16641942  0.82367255  0.92556846     0.20600
H2521       H  0.14118580  0.86579423  0.88172083     0.10400
C2522       C  0.18178923  0.81420441  0.91731439    -0.15600
C2523       C  0.19685412  0.80758933  0.92838714     0.03400
C2524       C  0.19666623  0.81039476  0.94824204    -0.10900
C2525       C  0.18098966  0.81960618  0.95638447    -0.00900
C2526       C  0.16607017  0.82623761  0.94529778    -0.06100
H2527       H  0.18207078  0.81199241  0.90214302     0.06400
H2528       H  0.18047065  0.82212217  0.97149910     0.09800
Br2529     Br  0.17789692  0.85892998  0.89942635    -0.05800
Br2530     Br  0.09350852  0.81839823  0.90713437    -0.02700
Br2531     Br  0.21670774  0.79432928  0.91544834     0.00100
Br2532     Br  0.14594186  0.83955655  0.95771069    -0.04300
C2533       C  0.29322081  0.84286704  0.95546437    -0.11700
C2534       C  0.30759336  0.85418197  0.96354524     0.03800
C2535       C  0.32044445  0.86370173  0.95180571    -0.12200
C2536       C  0.31927183  0.86225122  0.93205383     0.18700
C2537       C  0.30502052  0.85096852  0.92397961    -0.09300
C2538       C  0.29226286  0.84136762  0.93564094    -0.02200
H2539       H  0.33142625  0.87231205  0.95810521     0.05200
C2540       C  0.33234784  0.87325277  0.91995427     0.20600
H2541       H  0.28138908  0.83278721  0.92911583     0.10400
C2542       C  0.34555398  0.86386190  0.90844264    -0.15600
C2543       C  0.35590514  0.87367933  0.89463936     0.03400
C2544       C  0.35293725  0.89317071  0.89220032    -0.10900
C2545       C  0.34087195  0.90269713  0.90479256    -0.00900
C2546       C  0.33063392  0.89295654  0.91856725    -0.06100
H2547       H  0.34714324  0.84871191  0.90961670     0.06400
H2548       H  0.33853653  0.91770405  0.90315314     0.09800
Br2549     Br  0.30190312  0.84877506  0.89707260    -0.05800
Br2550     Br  0.31126220  0.85645333  0.99036239    -0.02700
Br2551     Br  0.37248801  0.85947747  0.87863379     0.00100
Br2552     Br  0.31313762  0.90701667  0.93382396    -0.04300
C2553       C  0.15726460  0.88997161  0.10944713    -0.11700
C2554       C  0.16915465  0.87473972  0.11426217     0.03800
C2555       C  0.18004165  0.86594655  0.10025099    -0.12200
C2556       C  0.17945358  0.87226616  0.08145338     0.18700
C2557       C  0.16763148  0.88748154  0.07669505    -0.09300
C2558       C  0.15698697  0.89641117  0.09074231    -0.02200
H2559       H  0.18911534  0.85424845  0.10403772     0.05200
C2560       C  0.19106252  0.86273329  0.06692135     0.20600
H2561       H  0.14924991  0.90904547  0.08721251     0.10400
C2562       C  0.18197853  0.85190759  0.05310324    -0.15600
C2563       C  0.19232170  0.84257123  0.03910970     0.03400
C2564       C  0.21231759  0.84369695  0.03897769    -0.10900
C2565       C  0.22137152  0.85498210  0.05258739    -0.00900
C2566       C  0.21090531  0.86444693  0.06651036    -0.06100
H2567       H  0.16669170  0.85079500  0.05317252     0.06400
H2568       H  0.23665211  0.85608469  0.05269980     0.09800
Br2569     Br  0.16632395  0.89721058  0.05140615    -0.05800
Br2570     Br  0.17145786  0.86581865  0.13982080    -0.02700
Br2571     Br  0.17803231  0.82936347  0.02013538     0.00100
Br2572     Br  0.22422424  0.87977187  0.08447619    -0.04300
C2573       C  0.15944509  0.93448867  0.16366256    -0.11700
C2574       C  0.17284501  0.94724457  0.15573025     0.03800
C2575       C  0.18676722  0.95539080  0.16710956    -0.12200
C2576       C  0.18798119  0.95114376  0.18639918     0.18700
C2577       C  0.17397251  0.93975440  0.19471305    -0.09300
C2578       C  0.15983066  0.93174715  0.18347430    -0.02200
H2579       H  0.19720816  0.96461451  0.16070452     0.05200
C2580       C  0.20434050  0.95826227  0.19732543     0.20600
H2581       H  0.14973510  0.92291004  0.19062262     0.10400
C2582       C  0.20138907  0.97093680  0.21228810    -0.15600
C2583       C  0.21667837  0.97837944  0.22236975     0.03400
C2584       C  0.23529136  0.97348258  0.21723360    -0.10900
C2585       C  0.23826807  0.96081364  0.20230477    -0.00900
C2586       C  0.22298150  0.95298632  0.19253353    -0.06100
H2587       H  0.18715351  0.97525198  0.21595651     0.06400
H2588       H  0.25254240  0.95690976  0.19831823     0.09800
Br2589     Br  0.17428494  0.93344065  0.22113664    -0.05800
Br2590     Br  0.17402914  0.95346664  0.12922489    -0.02700
Br2591     Br  0.21146697  0.99610606  0.24217786     0.00100
Br2592     Br  0.22829304  0.93472936  0.17315727    -0.04300
C2593       C  0.30058001  0.05892091  0.19616544    -0.11700
C2594       C  0.29427521  0.07774753  0.19471015     0.03800
C2595       C  0.30197676  0.08970747  0.18081338    -0.12200
C2596       C  0.31608480  0.08330202  0.16832818     0.18700
C2597       C  0.32261937  0.06463140  0.17003117    -0.09300
C2598       C  0.31469327  0.05260883  0.18360944    -0.02200
H2599       H  0.29687904  0.10406206  0.17967997     0.05200
C2600       C  0.32402857  0.09629692  0.15381749     0.20600
H2601       H  0.32010490  0.03836777  0.18478653     0.10400
C2602       C  0.33466738  0.11202981  0.15955069    -0.15600
C2603       C  0.34249790  0.12445354  0.14618944     0.03400
C2604       C  0.34014310  0.12097683  0.12670846    -0.10900
C2605       C  0.32900863  0.10559109  0.12101945    -0.00900
C2606       C  0.32091346  0.09336312  0.13433230    -0.06100
H2607       H  0.33668961  0.11477507  0.17449386     0.06400
H2608       H  0.32639054  0.10323500  0.10609939     0.09800
Br2609     Br  0.34316752  0.05521998  0.15493406    -0.05800
Br2610     Br  0.27467831  0.08760543  0.21069467    -0.02700
Br2611     Br  0.35464828  0.14681334  0.15528159     0.00100
Br2612     Br  0.30487287  0.07349162  0.12523085    -0.04300
C2613       C  0.30879370  0.95904565  0.30104266    -0.11700
C2614       C  0.29695441  0.94487742  0.30886412     0.03800
C2615       C  0.30381284  0.93300594  0.32325907    -0.12200
C2616       C  0.32235975  0.93482296  0.33014691     0.18700
C2617       C  0.33413976  0.94882754  0.32236804    -0.09300
C2618       C  0.32737339  0.96068036  0.30809422    -0.02200
H2619       H  0.29468667  0.92210263  0.32896163     0.05200
C2620       C  0.32946593  0.92174166  0.34502162     0.20600
H2621       H  0.33680859  0.97142855  0.30261569     0.10400
C2622       C  0.34399779  0.90899790  0.34055357    -0.15600
C2623       C  0.35144214  0.89679864  0.35425900     0.03400
C2624       C  0.34418491  0.89697270  0.37286708    -0.10900
C2625       C  0.32949738  0.90960202  0.37728039    -0.00900
C2626       C  0.32225838  0.92200229  0.36363509    -0.06100
H2627       H  0.34957891  0.90854007  0.32626649     0.06400
H2628       H  0.32380223  0.90999770  0.39152484     0.09800
Br2629     Br  0.35950791  0.95276564  0.33116963    -0.05800
Br2630     Br  0.27170678  0.94019351  0.30009771    -0.02700
Br2631     Br  0.37070968  0.87955510  0.34635939     0.00100
Br2632     Br  0.30313269  0.93959073  0.37130053    -0.04300
C2633       C  0.33655884  0.97215235  0.20351023    -0.11700
C2634       C  0.35507079  0.96555975  0.20738116     0.03800
C2635       C  0.36397206  0.95315089  0.19469426    -0.12200
C2636       C  0.35492809  0.94727145  0.17805761     0.18700
C2637       C  0.33707812  0.95455914  0.17363879    -0.09300
C2638       C  0.32812444  0.96685631  0.18618923    -0.02200
H2639       H  0.37777838  0.94752721  0.19813969     0.05200
C2640       C  0.36309480  0.93172695  0.16678775     0.20600
H2641       H  0.31417253  0.97187680  0.18244946     0.10400
C2642       C  0.35599207  0.91350249  0.16966516    -0.15600
C2643       C  0.36401858  0.89805086  0.16045562     0.03400
C2644       C  0.37936070  0.90072026  0.14794283    -0.10900
C2645       C  0.38585820  0.91907888  0.14428005    -0.00900
C2646       C  0.37789775  0.93457351  0.15372984    -0.06100
H2647       H  0.34446300  0.91124386  0.17954638     0.06400
H2648       H  0.39780784  0.92124743  0.13489428     0.09800
Br2649     Br  0.32414866  0.94757007  0.15082641    -0.05800
Br2650     Br  0.36897686  0.97218836  0.22972893    -0.02700
Br2651     Br  0.35386282  0.87349129  0.16590144     0.00100
Br2652     Br  0.38797939  0.95922473  0.14895685    -0.04300
C2653       C  0.38797770  0.11477925  0.34618156    -0.11700
C2654       C  0.36896356  0.11051139  0.35058121     0.03800
C2655       C  0.35947196  0.09634928  0.34044484    -0.12200
C2656       C  0.36857518  0.08634330  0.32588633     0.18700
C2657       C  0.38774532  0.09001453  0.32208305    -0.09300
C2658       C  0.39731329  0.10382320  0.33240949    -0.02200
H2659       H  0.34463361  0.09375084  0.34329467     0.05200
C2660       C  0.35731164  0.07408031  0.31320719     0.20600
H2661       H  0.41192833  0.10680495  0.32884354     0.10400
C2662       C  0.34489597  0.08263267  0.30041636    -0.15600
C2663       C  0.33437788  0.07186894  0.28761701     0.03400
C2664       C  0.33609553  0.05198516  0.28751539    -0.10900
C2665       C  0.34874588  0.04345374  0.30023674    -0.00900
C2666       C  0.35922473  0.05431698  0.31308408    -0.06100
H2667       H  0.34359504  0.09785983  0.30021135     0.06400
H2668       H  0.35014393  0.02824309  0.30053134     0.09800
Br2669     Br  0.40089671  0.07814608  0.30148464    -0.05800
Br2670     Br  0.35452106  0.12469096  0.36860497    -0.02700
Br2671     Br  0.31879076  0.08542134  0.27001616     0.00100
Br2672     Br  0.37549811  0.04159492  0.33058755    -0.04300
C2673       C  0.52777658  0.79134057  0.74002223    -0.11700
C2674       C  0.51855474  0.79290410  0.72236007     0.03800
C2675       C  0.52701980  0.80313241  0.70769008    -0.12200
C2676       C  0.54453340  0.81196554  0.71027373     0.18700
C2677       C  0.55370165  0.81060484  0.72785420    -0.09300
C2678       C  0.54538241  0.80022253  0.74251236    -0.02200
H2679       H  0.51999325  0.80407010  0.69411285     0.05200
C2680       C  0.55311813  0.82225617  0.69428989     0.20600
H2681       H  0.55255686  0.79935477  0.75601475     0.10400
C2682       C  0.54909132  0.84136148  0.69185296    -0.15600
C2683       C  0.55713900  0.85160059  0.67694842     0.03400
C2684       C  0.56940888  0.84260470  0.66371411    -0.10900
C2685       C  0.57296474  0.82314269  0.66626883    -0.00900
C2686       C  0.56507881  0.81312034  0.68139195    -0.06100
H2687       H  0.53986939  0.84844138  0.70184827     0.06400
H2688       H  0.58234224  0.81540059  0.65715812     0.09800
Br2689     Br  0.57748994  0.82279879  0.73243286    -0.05800
Br2690     Br  0.49498151  0.78057108  0.71691677    -0.02700
Br2691     Br  0.55132766  0.87808933  0.67648657     0.00100
Br2692     Br  0.57154849  0.78700603  0.68434288    -0.04300
C2693       C  0.44986026  0.80961029  0.81036059    -0.11700
C2694       C  0.44475263  0.82355440  0.79691061     0.03800
C2695       C  0.43383058  0.83906583  0.80253926    -0.12200
C2696       C  0.42809094  0.84121597  0.82138667     0.18700
C2697       C  0.43312861  0.82753023  0.83478896    -0.09300
C2698       C  0.44381672  0.81192775  0.82925253    -0.02200
H2699       H  0.42994060  0.84963828  0.79219279     0.05200
C2700       C  0.41621639  0.85741509  0.82683587     0.20600
H2701       H  0.44746299  0.80158852  0.83991228     0.10400
C2702       C  0.39661628  0.85605734  0.82451398    -0.15600
C2703       C  0.38467524  0.87038357  0.83094141     0.03400
C2704       C  0.39239175  0.88636730  0.84005407    -0.10900
C2705       C  0.41206802  0.88784227  0.84205995    -0.00900
C2706       C  0.42400896  0.87359008  0.83534566    -0.06100
H2707       H  0.39055995  0.84356052  0.81808796     0.06400
H2708       H  0.41816908  0.90014442  0.84874467     0.09800
Br2709     Br  0.42563595  0.82961436  0.86084386    -0.05800
Br2710     Br  0.45276290  0.82315247  0.77090747    -0.02700
Br2711     Br  0.35791930  0.86654658  0.82818615     0.00100
Br2712     Br  0.45081612  0.87668054  0.83804467    -0.04300
C2713       C  0.53644707  0.79595337  0.84102614    -0.11700
C2714       C  0.53798908  0.81481607  0.83496450     0.03800
C2715       C  0.55094133  0.82688249  0.84365320    -0.12200
C2716       C  0.56246492  0.82030879  0.85830153     0.18700
C2717       C  0.56009226  0.80175861  0.86512927    -0.09300
C2718       C  0.54710847  0.78968576  0.85643314    -0.02200
H2719       H  0.55244013  0.84123695  0.83860566     0.05200
C2720       C  0.57729754  0.83274146  0.86591829     0.20600
H2721       H  0.54593694  0.77519023  0.86115229     0.10400
C2722       C  0.57224184  0.84791796  0.87755499    -0.15600
C2723       C  0.58611588  0.85863626  0.88670074     0.03400
C2724       C  0.60536243  0.85391581  0.88440368    -0.10900
C2725       C  0.61033674  0.83967400  0.87149509    -0.00900
C2726       C  0.59649436  0.82924411  0.86212239    -0.06100
H2727       H  0.55744005  0.85097239  0.88008001     0.06400
H2728       H  0.62508751  0.83621262  0.86920709     0.09800
Br2729     Br  0.57455865  0.79222830  0.88597301    -0.05800
Br2730     Br  0.52276186  0.82457428  0.81475284    -0.02700
Br2731     Br  0.57765602  0.87844830  0.90302881     0.00100
Br2732     Br  0.60440901  0.81014941  0.84454326    -0.04300
C2733       C  0.39237896  0.35236943  0.60500850    -0.11700
C2734       C  0.39709347  0.35622244  0.62398657     0.03800
C2735       C  0.41105768  0.34549662  0.63291921    -0.12200
C2736       C  0.42030570  0.33089866  0.62323604     0.18700
C2737       C  0.41643886  0.32780324  0.60401124    -0.09300
C2738       C  0.40285602  0.33877119  0.59496676    -0.02200
H2739       H  0.41395591  0.34781156  0.64779154     0.05200
C2740       C  0.43193869  0.31751141  0.63399906     0.20600
H2741       H  0.39952612  0.33575727  0.58031115     0.10400
C2742       C  0.42276222  0.30413112  0.64535890    -0.15600
C2743       C  0.43309067  0.29115886  0.65598407     0.03400
C2744       C  0.45306167  0.29156885  0.65536718    -0.10900
C2745       C  0.46216561  0.30466069  0.64347037    -0.00900
C2746       C  0.45176591  0.31765644  0.63291637    -0.06100
H2747       H  0.40744717  0.30376869  0.64590234     0.06400
H2748       H  0.47745678  0.30523934  0.64285740     0.09800
Br2749     Br  0.42766191  0.30734629  0.59018821    -0.05800
Br2750     Br  0.38356825  0.37415953  0.63911805    -0.02700
Br2751     Br  0.41899603  0.27285741  0.67031870     0.00100
Br2752     Br  0.46516139  0.33578939  0.61783022    -0.04300
C2753       C  0.44878613  0.45863863  0.52067535    -0.11700
C2754       C  0.43302196  0.46450832  0.53155162     0.03800
C2755       C  0.42034911  0.45113233  0.53871164    -0.12200
C2756       C  0.42286589  0.43185356  0.53522934     0.18700
C2757       C  0.43817270  0.42595331  0.52390263    -0.09300
C2758       C  0.45110218  0.43927661  0.51696070    -0.02200
H2759       H  0.40857306  0.45578533  0.54736848     0.05200
C2760       C  0.40933373  0.41834180  0.54379557     0.20600
H2761       H  0.46288742  0.43448801  0.50840204     0.10400
C2762       C  0.39028092  0.41891669  0.53831766    -0.15600
C2763       C  0.37669667  0.40760399  0.54728751     0.03400
C2764       C  0.38216225  0.39521452  0.56190145    -0.10900
C2765       C  0.40127265  0.39465594  0.56730191    -0.00900
C2766       C  0.41475300  0.40621857  0.55859498    -0.06100
H2767       H  0.38588072  0.42861705  0.52733733     0.06400
H2768       H  0.40576609  0.38532839  0.57855736     0.09800
Br2769     Br  0.44155956  0.40000647  0.51695135    -0.05800
Br2770     Br  0.42839842  0.49033916  0.53829841    -0.02700
Br2771     Br  0.35080368  0.41109692  0.54018638     0.00100
Br2772     Br  0.44003692  0.40592566  0.56842761    -0.04300
C2773       C  0.57200823  0.38462171  0.39375570    -0.11700
C2774       C  0.57714491  0.38636967  0.41295509     0.03800
C2775       C  0.56792252  0.39955523  0.42453523    -0.12200
C2776       C  0.55358770  0.41112771  0.41727165     0.18700
C2777       C  0.54822640  0.40914068  0.39821763    -0.09300
C2778       C  0.55728413  0.39588235  0.38670477    -0.02200
H2779       H  0.57202817  0.40089046  0.43923642     0.05200
C2780       C  0.54482078  0.42569868  0.42947919     0.20600
H2781       H  0.55317387  0.39475022  0.37198787     0.10400
C2782       C  0.54983172  0.44463443  0.42679307    -0.15600
C2783       C  0.54166517  0.45893946  0.43774408     0.03400
C2784       C  0.52800918  0.45440567  0.45170748    -0.10900
C2785       C  0.52325642  0.43532080  0.45454618    -0.00900
C2786       C  0.53150161  0.42104247  0.44355307    -0.06100
H2787       H  0.56029424  0.44828154  0.41616887     0.06400
H2788       H  0.51293712  0.43148998  0.46523685     0.09800
Br2789     Br  0.52863350  0.42430377  0.38731438    -0.05800
Br2790     Br  0.59583974  0.37050541  0.42437140    -0.02700
Br2791     Br  0.55089802  0.48412541  0.43374121     0.00100
Br2792     Br  0.52384684  0.39542955  0.44785724    -0.04300
C2793       C  0.45241038  0.70766233  0.30521872    -0.11700
C2794       C  0.45475485  0.69747335  0.32233338     0.03800
C2795       C  0.44189723  0.68331514  0.32734206    -0.12200
C2796       C  0.42669021  0.67865765  0.31561552     0.18700
C2797       C  0.42439953  0.68843967  0.29841170    -0.09300
C2798       C  0.43722200  0.70275161  0.29331783    -0.02200
H2799       H  0.44388855  0.67569228  0.34047809     0.05200
C2800       C  0.41343187  0.66368287  0.32200504     0.20600
H2801       H  0.43511898  0.71025409  0.28014069     0.10400
C2802       C  0.40093957  0.66750499  0.33698869    -0.15600
C2803       C  0.38922301  0.65336783  0.34449712     0.03400
C2804       C  0.38998887  0.63489892  0.33710117    -0.10900
C2805       C  0.40246915  0.63115405  0.32201481    -0.00900
C2806       C  0.41417606  0.64528801  0.31454497    -0.06100
H2807       H  0.40032510  0.68159933  0.34288657     0.06400
H2808       H  0.40332692  0.61704418  0.31618768     0.09800
Br2809     Br  0.40371008  0.68306148  0.28175176    -0.05800
Br2810     Br  0.47573250  0.70108657  0.33922439    -0.02700
Br2811     Br  0.37177627  0.66047146  0.36401476     0.00100
Br2812     Br  0.43149794  0.63863124  0.29471028    -0.04300
C2813       C  0.39601385  0.58257198  0.37729068    -0.11700
C2814       C  0.41439769  0.58975466  0.38036407     0.03800
C2815       C  0.42639296  0.58102103  0.39355096    -0.12200
C2816       C  0.42042127  0.56509080  0.40378778     0.18700
C2817       C  0.40220084  0.55779474  0.40052036    -0.09300
C2818       C  0.39027295  0.56643858  0.38737062    -0.02200
H2819       H  0.44046071  0.58664578  0.39580477     0.05200
C2820       C  0.43313696  0.55622906  0.41795387     0.20600
H2821       H  0.37621406  0.56072634  0.38531796     0.10400
C2822       C  0.42881481  0.55786863  0.43725375    -0.15600
C2823       C  0.43971817  0.54877477  0.45105428     0.03400
C2824       C  0.45537413  0.53745914  0.44561063    -0.10900
C2825       C  0.45988618  0.53630168  0.42620023    -0.00900
C2826       C  0.44899394  0.54555474  0.41248966    -0.06100
H2827       H  0.41678253  0.56628083  0.44160629     0.06400
H2828       H  0.47184932  0.52795981  0.42156209     0.09800
Br2829     Br  0.39306056  0.53581448  0.41349783    -0.05800
Br2830     Br  0.42435087  0.61057131  0.36615484    -0.02700
Br2831     Br  0.43265505  0.55339607  0.47693880     0.00100
Br2832     Br  0.45591947  0.54266764  0.38639131    -0.04300
C2833       C  0.43024624  0.62606806  0.60629015    -0.11700
C2834       C  0.44428811  0.61362098  0.61309245     0.03800
C2835       C  0.45311051  0.60087226  0.60071211    -0.12200
C2836       C  0.44865150  0.60049465  0.58135261     0.18700
C2837       C  0.43486636  0.61318829  0.57454523    -0.09300
C2838       C  0.42551811  0.62538434  0.58705186    -0.02200
H2839       H  0.46323707  0.59090240  0.60632915     0.05200
C2840       C  0.45721264  0.58578582  0.56883963     0.20600
H2841       H  0.41456615  0.63446912  0.58162688     0.10400
C2842       C  0.44520197  0.57327656  0.55929756    -0.15600
C2843       C  0.45224411  0.55945579  0.54702107     0.03400
C2844       C  0.47208748  0.55732148  0.54443531    -0.10900
C2845       C  0.48413502  0.56962192  0.55448171    -0.00900
C2846       C  0.47692112  0.58374876  0.56644251    -0.06100
H2847       H  0.43004573  0.57440673  0.56128683     0.06400
H2848       H  0.49932054  0.56852374  0.55281773     0.09800
Br2849     Br  0.42872247  0.61504336  0.54815705    -0.05800
Br2850     Br  0.45100152  0.61221362  0.63936412    -0.02700
Br2851     Br  0.43333177  0.54461605  0.53433895     0.00100
Br2852     Br  0.49463403  0.60044484  0.57838767    -0.04300
C2853       C  0.42395993  0.67523688  0.65995510    -0.11700
C2854       C  0.41218511  0.68379493  0.67391089     0.03800
C2855       C  0.42010013  0.69454413  0.68847950    -0.12200
C2856       C  0.43959770  0.69741743  0.68952610     0.18700
C2857       C  0.45132009  0.69005757  0.67528098    -0.09300
C2858       C  0.44355255  0.67916946  0.66067335    -0.02200
H2859       H  0.41100060  0.70031522  0.69939668     0.05200
C2860       C  0.44753368  0.70651954  0.70655683     0.20600
H2861       H  0.45320975  0.67374313  0.65022342     0.10400
C2862       C  0.45098899  0.69536129  0.72252255    -0.15600
C2863       C  0.45832393  0.70322892  0.73911625     0.03400
C2864       C  0.46255313  0.72272704  0.73985128    -0.10900
C2865       C  0.45863750  0.73392429  0.72385457    -0.00900
C2866       C  0.45115762  0.72598826  0.70734077    -0.06100
H2867       H  0.44779870  0.68041253  0.72209572     0.06400
H2868       H  0.46161355  0.74891225  0.72406468     0.09800
Br2869     Br  0.47816064  0.69404604  0.67566471    -0.05800
Br2870     Br  0.38510807  0.68098487  0.67468706    -0.02700
Br2871     Br  0.46102926  0.68663718  0.76042390     0.00100
Br2872     Br  0.44603663  0.74219945  0.68625345    -0.04300
C2873       C  0.60543907  0.38512023  0.65950167    -0.11700
C2874       C  0.59026278  0.38832896  0.67207113     0.03800
C2875       C  0.57880462  0.37326762  0.67784942    -0.12200
C2876       C  0.58236011  0.35487619  0.67149846     0.18700
C2877       C  0.59757264  0.35162014  0.65902614    -0.09300
C2878       C  0.60889286  0.36672895  0.65300803    -0.02200
H2879       H  0.56694964  0.37592485  0.68721563     0.05200
C2880       C  0.56928119  0.33955365  0.67714568     0.20600
H2881       H  0.62058956  0.36408333  0.64343524     0.10400
C2882       C  0.55273573  0.33684417  0.66667227    -0.15600
C2883       C  0.53967896  0.32287293  0.67170219     0.03400
C2884       C  0.54304122  0.31125460  0.68764395    -0.10900
C2885       C  0.55954030  0.31422249  0.69830535    -0.00900
C2886       C  0.57266804  0.32816465  0.69309201    -0.06100
H2887       H  0.54991771  0.34575579  0.65454762     0.06400
H2888       H  0.56243937  0.30541402  0.71047753     0.09800
Br2889     Br  0.60331684  0.32679574  0.64991647    -0.05800
Br2890     Br  0.58395554  0.41313542  0.68091642    -0.02700
Br2891     Br  0.51708560  0.32120275  0.65672251     0.00100
Br2892     Br  0.59510987  0.33113109  0.70796151    -0.04300
C2893       C  0.60609884  0.43669545  0.61695632    -0.11700
C2894       C  0.58733064  0.43094608  0.61330111     0.03800
C2895       C  0.57667464  0.44024634  0.59946775    -0.12200
C2896       C  0.58430951  0.45531761  0.58908681     0.18700
C2897       C  0.60293228  0.46120827  0.59279941    -0.09300
C2898       C  0.61362026  0.45195047  0.60661582    -0.02200
H2899       H  0.56225671  0.43577571  0.59685130     0.05200
C2900       C  0.57253263  0.46459765  0.57446752     0.20600
H2901       H  0.62805104  0.45647970  0.60903615     0.10400
C2902       C  0.56483345  0.48248200  0.57799752    -0.15600
C2903       C  0.55253497  0.49101773  0.56501085     0.03400
C2904       C  0.54761391  0.48150184  0.54809476    -0.10900
C2905       C  0.55572966  0.46372012  0.54452053    -0.00900
C2906       C  0.56812625  0.45534770  0.55743545    -0.06100
H2907       H  0.56809991  0.48965890  0.59113200     0.06400
H2908       H  0.55247801  0.45626472  0.53154161     0.09800
Br2909     Br  0.61455992  0.48135969  0.57888280    -0.05800
Br2910     Br  0.57490531  0.41142328  0.62739643    -0.02700
Br2911     Br  0.54206825  0.51501823  0.57197198     0.00100
Br2912     Br  0.57903502  0.43137848  0.55112075    -0.04300
C2913       C  0.65560225  0.43691329  0.66848587    -0.11700
C2914       C  0.66960446  0.44862804  0.66000469     0.03800
C2915       C  0.68421303  0.45613629  0.67093495    -0.12200
C2916       C  0.68499469  0.45299428  0.69045520     0.18700
C2917       C  0.66989383  0.44355273  0.69934874    -0.09300
C2918       C  0.65551709  0.43545366  0.68842098    -0.02200
H2919       H  0.69534291  0.46413036  0.66404421     0.05200
C2920       C  0.70173360  0.45977035  0.70104978     0.20600
H2921       H  0.64448326  0.42802903  0.69585959     0.10400
C2922       C  0.70622826  0.47903750  0.70057922    -0.15600
C2923       C  0.72261456  0.48585094  0.70923497     0.03400
C2924       C  0.73468004  0.47333036  0.71891203    -0.10900
C2925       C  0.73016449  0.45409073  0.71953953    -0.00900
C2926       C  0.71408989  0.44717649  0.71030994    -0.06100
H2927       H  0.69701336  0.48880307  0.69327054     0.06400
H2928       H  0.73956019  0.44432242  0.72660736     0.09800
Br2929     Br  0.66800531  0.44183650  0.72641016    -0.05800
Br2930     Br  0.67038514  0.45448040  0.63339715    -0.02700
Br2931     Br  0.72750667  0.51248183  0.70788587     0.00100
Br2932     Br  0.71065302  0.42032426  0.70934206    -0.04300
C2933       C  0.54483951  0.72027920  0.33223178    -0.11700
C2934       C  0.56477283  0.72081879  0.33089392     0.03800
C2935       C  0.57563669  0.70769213  0.34080229    -0.12200
C2936       C  0.56707057  0.69394679  0.35222605     0.18700
C2937       C  0.54722321  0.69367318  0.35399254    -0.09300
C2938       C  0.53627915  0.70677709  0.34402875    -0.02200
H2939       H  0.59091935  0.70841143  0.33986250     0.05200
C2940       C  0.57931752  0.68113958  0.36328499     0.20600
H2941       H  0.52101581  0.70612135  0.34516090     0.10400
C2942       C  0.58018122  0.68341813  0.38295692    -0.15600
C2943       C  0.59344023  0.67355044  0.39370197     0.03400
C2944       C  0.60628901  0.66120381  0.38471506    -0.10900
C2945       C  0.60468759  0.65806161  0.36518487    -0.00900
C2946       C  0.59140106  0.66800209  0.35442615    -0.06100
H2947       H  0.57090221  0.69341603  0.38991224     0.06400
H2948       H  0.61442621  0.64858134  0.35812778     0.09800
Br2949     Br  0.53446158  0.67530804  0.36934604    -0.05800
Br2950     Br  0.57808987  0.73988980  0.31681843    -0.02700
Br2951     Br  0.59331588  0.67757594  0.42057659     0.00100
Br2952     Br  0.59056730  0.66354621  0.32766061    -0.04300
C2953       C  0.61715188  0.61471988  0.42596247    -0.11700
C2954       C  0.62279367  0.59681149  0.43237835     0.03800
C2955       C  0.60975463  0.58513963  0.44170274    -0.12200
C2956       C  0.59122616  0.59133069  0.44522098     0.18700
C2957       C  0.58598594  0.60971136  0.43979975    -0.09300
C2958       C  0.59879370  0.62106244  0.42987720    -0.02200
H2959       H  0.61403061  0.57115330  0.44611668     0.05200
C2960       C  0.57742525  0.57827563  0.45403656     0.20600
H2961       H  0.59453640  0.63505625  0.42552844     0.10400
C2962       C  0.57985545  0.57252525  0.47287390    -0.15600
C2963       C  0.56703034  0.56007148  0.48150973     0.03400
C2964       C  0.55136487  0.55316948  0.47116460    -0.10900
C2965       C  0.54924777  0.55881785  0.45219103    -0.00900
C2966       C  0.56209498  0.57110476  0.44361320    -0.06100
H2967       H  0.59184146  0.57770779  0.48086807     0.06400
H2968       H  0.53748530  0.55364614  0.44386607     0.09800
Br2969     Br  0.56184583  0.62019800  0.44641959    -0.05800
Br2970     Br  0.64807539  0.58779443  0.42878179    -0.02700
Br2971     Br  0.57247491  0.55228920  0.50694798     0.00100
Br2972     Br  0.55846559  0.57704356  0.41735009    -0.04300
C2973       C  0.16045966  0.43137224  0.82799204    -0.11700
C2974       C  0.17359449  0.42016293  0.81757821     0.03800
C2975       C  0.18836058  0.42863995  0.80742007    -0.12200
C2976       C  0.19071482  0.44820422  0.80728829     0.18700
C2977       C  0.17741296  0.45952003  0.81675937    -0.09300
C2978       C  0.16247631  0.45118277  0.82685611    -0.02200
H2979       H  0.19848271  0.41983226  0.80002862     0.05200
C2980       C  0.20747326  0.45643032  0.79764222     0.20600
H2981       H  0.15300633  0.46054946  0.83418874     0.10400
C2982       C  0.20785219  0.45755336  0.77781677    -0.15600
C2983       C  0.22360628  0.46503751  0.76831538     0.03400
C2984       C  0.23930677  0.47157969  0.77867934    -0.10900
C2985       C  0.23892876  0.47043398  0.79850872    -0.00900
C2986       C  0.22330174  0.46269681  0.80799064    -0.06100
H2987       H  0.19579150  0.45271056  0.76972547     0.06400
H2988       H  0.25095409  0.47532553  0.80662869     0.09800
Br2989     Br  0.17936276  0.48651436  0.81658178    -0.05800
Br2990     Br  0.17327204  0.39300546  0.81736085    -0.02700
Br2991     Br  0.22266365  0.46696891  0.74125989     0.00100
Br2992     Br  0.22441810  0.46034059  0.83502013    -0.04300
C2993       C  0.30831192  0.45398260  0.69067040    -0.11700
C2994       C  0.32186251  0.43977184  0.69432308     0.03800
C2995       C  0.32886949  0.42871696  0.67944787    -0.12200
C2996       C  0.32298062  0.43168421  0.66075493     0.18700
C2997       C  0.30955430  0.44585336  0.65702995    -0.09300
C2998       C  0.30242994  0.45687274  0.67188392    -0.02200
H2999       H  0.33924091  0.41789113  0.68243462     0.05200
C3000       C  0.33028920  0.41913880  0.64560573     0.20600
H3001       H  0.29219468  0.46776867  0.66871327     0.10400
C3002       C  0.32527468  0.40001926  0.64598866    -0.15600
C3003       C  0.33165858  0.38758366  0.63201720     0.03400
C3004       C  0.34289865  0.39434582  0.61688732    -0.10900
C3005       C  0.34861387  0.41332517  0.61695873    -0.00900
C3006       C  0.34259417  0.42565644  0.63128303    -0.06100
H3007       H  0.31646728  0.39469461  0.65737199     0.06400
H3008       H  0.35771400  0.41860916  0.60579358     0.09800
Br3009     Br  0.30009324  0.45033770  0.63200031    -0.05800
Br3010     Br  0.33271530  0.43569933  0.71888730    -0.02700
Br3011     Br  0.32594759  0.36129378  0.63544216     0.00100
Br3012     Br  0.35223914  0.45096148  0.63123356    -0.04300
C3013       C  0.34340297  0.54161093  0.70181795    -0.11700
C3014       C  0.34556189  0.53912194  0.68210610     0.03800
C3015       C  0.35528154  0.55268192  0.67136512    -0.12200
C3016       C  0.36305684  0.56873655  0.67999921     0.18700
C3017       C  0.36131670  0.57093719  0.69976816    -0.09300
C3018       C  0.35173006  0.55734674  0.71049220    -0.02200
H3019       H  0.35666576  0.55077565  0.65621142     0.05200
C3020       C  0.37202915  0.58358237  0.66820525     0.20600
H3021       H  0.35001050  0.55954275  0.72557664     0.10400
C3022       C  0.36063030  0.59505443  0.65678680    -0.15600
C3023       C  0.36823612  0.61071164  0.64730633     0.03400
C3024       C  0.38750019  0.61534476  0.64950739    -0.10900
C3025       C  0.39906854  0.60315122  0.66006301    -0.00900
C3026       C  0.39156493  0.58723401  0.66909045    -0.06100
H3027       H  0.34561550  0.59217628  0.65575724     0.06400
H3028       H  0.41398629  0.60622936  0.66158992     0.09800
Br3029     Br  0.37056963  0.59293624  0.71262480    -0.05800
Br3030     Br  0.33611895  0.51713815  0.66935708    -0.02700
Br3031     Br  0.35134221  0.62572458  0.63263447     0.00100
Br3032     Br  0.40845190  0.57087278  0.68249632    -0.04300
C3033       C  0.28124299  0.34927946  0.04356096    -0.11700
C3034       C  0.28051168  0.34642662  0.06336360     0.03800
C3035       C  0.29271943  0.35636077  0.07516042    -0.12200
C3036       C  0.30558602  0.36938140  0.06773003     0.18700
C3037       C  0.30575223  0.37308055  0.04816632    -0.09300
C3038       C  0.29357205  0.36303910  0.03619251    -0.02200
H3039       H  0.29224384  0.35386025  0.09028867     0.05200
C3040       C  0.31858031  0.37875479  0.08097130     0.20600
H3041       H  0.29429690  0.36543454  0.02106652     0.10400
C3042       C  0.33349461  0.36835423  0.08883378    -0.15600
C3043       C  0.34432910  0.37571359  0.10367211     0.03400
C3044       C  0.34023149  0.39385165  0.11076211    -0.10900
C3045       C  0.32564147  0.40439774  0.10231126    -0.00900
C3046       C  0.31473310  0.39693744  0.08774461    -0.06100
H3047       H  0.33620589  0.35414325  0.08388838     0.06400
H3048       H  0.32246505  0.41849925  0.10728076     0.09800
Br3049     Br  0.32289867  0.39106604  0.03727416    -0.05800
Br3050     Br  0.26286956  0.32958182  0.07543411    -0.02700
Br3051     Br  0.36312212  0.35961732  0.11461184     0.00100
Br3052     Br  0.29386899  0.41155955  0.07856199    -0.04300
C3053       C  0.38948939  0.43437096  0.11671417    -0.11700
C3054       C  0.38835020  0.43223182  0.09684183     0.03800
C3055       C  0.40092600  0.44189212  0.08505109    -0.12200
C3056       C  0.41475733  0.45382609  0.09253456     0.18700
C3057       C  0.41590273  0.45621969  0.11227861    -0.09300
C3058       C  0.40334954  0.44650410  0.12417963    -0.02200
H3059       H  0.39982137  0.44020717  0.06984520     0.05200
C3060       C  0.42757100  0.46372393  0.07927891     0.20600
H3061       H  0.40437121  0.44848904  0.13934635     0.10400
C3062       C  0.42023637  0.47782779  0.06746917    -0.15600
C3063       C  0.43161937  0.48658345  0.05379908     0.03400
C3064       C  0.45079229  0.48139037  0.05198938    -0.10900
C3065       C  0.45810165  0.46734561  0.06392381    -0.00900
C3066       C  0.44658287  0.45827808  0.07722749    -0.06100
H3067       H  0.40552887  0.48189851  0.06878618     0.06400
H3068       H  0.47269044  0.46292557  0.06242940     0.09800
Br3069     Br  0.43389229  0.47308486  0.12351427    -0.05800
Br3070     Br  0.36930618  0.41774067  0.08434330    -0.02700
Br3071     Br  0.42039579  0.50589448  0.03847850     0.00100
Br3072     Br  0.45700032  0.43760586  0.09126951    -0.04300
C3073       C  0.54878497  0.70401546  0.80749520    -0.11700
C3074       C  0.56459992  0.70855219  0.81895418     0.03800
C3075       C  0.57616516  0.69414961  0.82605454    -0.12200
C3076       C  0.57250606  0.67512401  0.82197777     0.18700
C3077       C  0.55689091  0.67057835  0.81049235    -0.09300
C3078       C  0.54523851  0.68489700  0.80344506    -0.02200
H3079       H  0.58800490  0.69780491  0.83505111     0.05200
C3080       C  0.58506130  0.66024855  0.82986446     0.20600
H3081       H  0.53325124  0.68099761  0.79475922     0.10400
C3082       C  0.57772464  0.64697239  0.84270209    -0.15600
C3083       C  0.58898263  0.63228923  0.84974531     0.03400
C3084       C  0.60812313  0.63085181  0.84417592    -0.10900
C3085       C  0.61550509  0.64441324  0.83165040    -0.00900
C3086       C  0.60421494  0.65894885  0.82450301    -0.06100
H3087       H  0.56301740  0.64781218  0.84694967     0.06400
H3088       H  0.63016530  0.64359736  0.82723946     0.09800
Br3089     Br  0.55109383  0.64503342  0.80361329    -0.05800
Br3090     Br  0.57071220  0.73383536  0.82668667    -0.02700
Br3091     Br  0.57687198  0.61385991  0.86550757     0.00100
Br3092     Br  0.61541239  0.67606614  0.80666459    -0.04300
C3093       C  0.60636911  0.57888331  0.88469444    -0.11700
C3094       C  0.60548947  0.58257631  0.90434836     0.03800
C3095       C  0.59220318  0.57319799  0.91562785    -0.12200
C3096       C  0.57967274  0.56008156  0.90779041     0.18700
C3097       C  0.58029791  0.55644771  0.88825751    -0.09300
C3098       C  0.59361452  0.56575174  0.87689642    -0.02200
H3099       H  0.59180541  0.57594304  0.93071433     0.05200
C3100       C  0.56625305  0.55028081  0.92044831     0.20600
H3101       H  0.59390712  0.56282022  0.86185117     0.10400
C3102       C  0.54834476  0.55808648  0.92353172    -0.15600
C3103       C  0.53593778  0.55018501  0.93680300     0.03400
C3104       C  0.54154150  0.53422278  0.94742575    -0.10900
C3105       C  0.55925433  0.52603316  0.94372016    -0.00900
C3106       C  0.57159895  0.53398202  0.93041198    -0.06100
H3107       H  0.54410095  0.57052540  0.91572453     0.06400
H3108       H  0.56376268  0.51373437  0.95159323     0.09800
Br3109     Br  0.56332726  0.53881316  0.87664912    -0.05800
Br3110     Br  0.62268705  0.59901168  0.91722689    -0.02700
Br3111     Br  0.51132458  0.56144348  0.93908088     0.00100
Br3112     Br  0.59581591  0.52244687  0.92654771    -0.04300
C3113       C  0.65753421  0.57833414  0.83428422    -0.11700
C3114       C  0.67058418  0.56539244  0.84243689     0.03800
C3115       C  0.68434755  0.55666180  0.83121563    -0.12200
C3116       C  0.68550782  0.56018361  0.81180196     0.18700
C3117       C  0.67198550  0.57189425  0.80330833    -0.09300
C3118       C  0.65818544  0.58079534  0.81443057    -0.02200
H3119       H  0.69459279  0.54741156  0.83779397     0.05200
C3120       C  0.70154087  0.55217116  0.80097178     0.20600
H3121       H  0.64840510  0.58987398  0.80720145     0.10400
C3122       C  0.70058781  0.53354083  0.79444398    -0.15600
C3123       C  0.71611245  0.52515065  0.78539356     0.03400
C3124       C  0.73320570  0.53538158  0.78315088    -0.10900
C3125       C  0.73381503  0.55426674  0.78921188    -0.00900
C3126       C  0.71820223  0.56264990  0.79803515    -0.06100
H3127       H  0.68769313  0.52549531  0.79641204     0.06400
H3128       H  0.74664613  0.56246045  0.78748291     0.09800
Br3129     Br  0.67216748  0.57642916  0.77655144    -0.05800
Br3130     Br  0.67130964  0.55940734  0.86900777    -0.02700
Br3131     Br  0.71253891  0.50015343  0.77548959     0.00100
Br3132     Br  0.72040211  0.58832192  0.80634130    -0.04300
C3133       C  0.38672820  0.65691604  0.88561597    -0.11700
C3134       C  0.39305482  0.65295248  0.86712381     0.03800
C3135       C  0.40846917  0.66291748  0.85965309    -0.12200
C3136       C  0.41784939  0.67671790  0.87040219     0.18700
C3137       C  0.41205006  0.68001272  0.88918312    -0.09300
C3138       C  0.39667605  0.67011573  0.89661067    -0.02200
H3139       H  0.41265438  0.66046174  0.84510033     0.05200
C3140       C  0.43215317  0.68888956  0.86114821     0.20600
H3141       H  0.39221911  0.67302059  0.91099687     0.10400
C3142       C  0.42833092  0.70821672  0.85929076    -0.15600
C3143       C  0.44075295  0.72015043  0.84961498     0.03400
C3144       C  0.45728058  0.71271309  0.84131969    -0.10900
C3145       C  0.46114575  0.69336900  0.84318173    -0.00900
C3146       C  0.44881874  0.68148160  0.85313371    -0.06100
H3147       H  0.41533926  0.71397529  0.86502771     0.06400
H3148       H  0.47381771  0.68749085  0.83687760     0.09800
Br3149     Br  0.42444949  0.69804752  0.90521465    -0.05800
Br3150     Br  0.38024596  0.63552054  0.85081738    -0.02700
Br3151     Br  0.43351095  0.74609133  0.84676505     0.00100
Br3152     Br  0.45549441  0.65538088  0.85569823    -0.04300
C3153       C  0.34012502  0.61176358  0.87294857    -0.11700
C3154       C  0.34510840  0.59250969  0.87239511     0.03800
C3155       C  0.33975110  0.58138996  0.85690131    -0.12200
C3156       C  0.32960626  0.58917560  0.84174866     0.18700
C3157       C  0.32487661  0.60843827  0.84219095    -0.09300
C3158       C  0.33002017  0.61950303  0.85773633    -0.02200
H3159       H  0.34333009  0.56653740  0.85674910     0.05200
C3160       C  0.32369887  0.57692658  0.82581691     0.20600
H3161       H  0.32636348  0.63433707  0.85781661     0.10400
C3162       C  0.30446449  0.57283531  0.82330020    -0.15600
C3163       C  0.29830036  0.56108222  0.80857898     0.03400
C3164       C  0.31165240  0.55291697  0.79600584    -0.10900
C3165       C  0.33095603  0.55739616  0.79856352    -0.00900
C3166       C  0.33697800  0.56922837  0.81320252    -0.06100
H3167       H  0.29415624  0.57878457  0.83296844     0.06400
H3168       H  0.34159943  0.55163503  0.78916389     0.09800
Br3169     Br  0.31204968  0.62040154  0.82155149    -0.05800
Br3170     Br  0.35811043  0.58032641  0.89279287    -0.02700
Br3171     Br  0.27150562  0.55689245  0.80703545     0.00100
Br3172     Br  0.36346480  0.57490960  0.81509290    -0.04300
C3173       C  0.37848032  0.61189875  0.92743470    -0.11700
C3174       C  0.37297202  0.59929560  0.94193202     0.03800
C3175       C  0.38658713  0.58808230  0.95079947    -0.12200
C3176       C  0.40561114  0.58899420  0.94528847     0.18700
C3177       C  0.41104811  0.60116306  0.93055199    -0.09300
C3178       C  0.39756860  0.61262764  0.92191504    -0.02200
H3179       H  0.38228457  0.57835579  0.96183031     0.05200
C3180       C  0.41945058  0.57650856  0.95448066     0.20600
H3181       H  0.40206876  0.62213879  0.91078048     0.10400
C3182       C  0.41999288  0.55745830  0.94930203    -0.15600
C3183       C  0.43314658  0.54520963  0.95740820     0.03400
C3184       C  0.44585623  0.55200069  0.97124608    -0.10900
C3185       C  0.44535428  0.57117324  0.97625953    -0.00900
C3186       C  0.43225336  0.58340145  0.96802791    -0.06100
H3187       H  0.41036721  0.55219603  0.93861464     0.06400
H3188       H  0.45507191  0.57663861  0.98675502     0.09800
Br3189     Br  0.43655450  0.60199043  0.92125317    -0.05800
Br3190     Br  0.34705154  0.59545501  0.94913389    -0.02700
Br3191     Br  0.43400227  0.51986508  0.94779219     0.00100
Br3192     Br  0.43217908  0.60932712  0.97581439    -0.04300
C3193       C  0.32779321  0.66202410  0.92406460    -0.11700
C3194       C  0.33551144  0.67509868  0.93727557     0.03800
C3195       C  0.32409770  0.68896737  0.94533705    -0.12200
C3196       C  0.30495550  0.69022981  0.94083367     0.18700
C3197       C  0.29681981  0.67683391  0.92874044    -0.09300
C3198       C  0.30813063  0.66282957  0.92055475    -0.02200
H3199       H  0.33033458  0.69924464  0.95482671     0.05200
C3200       C  0.29428776  0.70653763  0.94799753     0.20600
H3201       H  0.30123821  0.65302570  0.91120731     0.10400
C3202       C  0.29434362  0.72319715  0.93734725    -0.15600
C3203       C  0.28695588  0.73990594  0.94479942     0.03400
C3204       C  0.27939054  0.74003058  0.96332347    -0.10900
C3205       C  0.27888302  0.72310741  0.97370778    -0.00900
C3206       C  0.28623272  0.70643990  0.96616798    -0.06100
H3207       H  0.30084353  0.72334664  0.92344135     0.06400
H3208       H  0.27289884  0.72286935  0.98783917     0.09800
Br3209     Br  0.27040161  0.67751492  0.92271382    -0.05800
Br3210     Br  0.36174150  0.67583017  0.94453508    -0.02700
Br3211     Br  0.28928834  0.76225999  0.92961118     0.00100
Br3212     Br  0.28549706  0.68398437  0.98127931    -0.04300
C3213       C  0.30428919  0.31741545  0.95464279    -0.11700
C3214       C  0.31248178  0.30514763  0.94108627     0.03800
C3215       C  0.32734657  0.31156815  0.92956798    -0.12200
C3216       C  0.33461328  0.32991261  0.93145263     0.18700
C3217       C  0.32697909  0.34186945  0.94539001    -0.09300
C3218       C  0.31199875  0.33564131  0.95669438    -0.02200
H3219       H  0.33305396  0.30228699  0.91879867     0.05200
C3220       C  0.34935125  0.33674133  0.91810692     0.20600
H3221       H  0.30636569  0.34523977  0.96721498     0.10400
C3222       C  0.34517576  0.35195993  0.90613101    -0.15600
C3223       C  0.35855154  0.35887609  0.89325313     0.03400
C3224       C  0.37649002  0.35030020  0.89192842    -0.10900
C3225       C  0.38060257  0.33495832  0.90383883    -0.00900
C3226       C  0.36729064  0.32822272  0.91689266    -0.06100
H3227       H  0.33130864  0.35841710  0.90671424     0.06400
H3228       H  0.39436782  0.32830380  0.90313374     0.09800
Br3229     Br  0.33675503  0.36676106  0.94987392    -0.05800
Br3230     Br  0.30379500  0.27983161  0.93676515    -0.02700
Br3231     Br  0.35084117  0.37919169  0.87717090     0.00100
Br3232     Br  0.37455059  0.30782483  0.93315659    -0.04300
C3233       C  0.38472764  0.39711636  0.84663610    -0.11700
C3234       C  0.38674003  0.41622137  0.85198379     0.03800
C3235       C  0.37703412  0.43029301  0.84193527    -0.12200
C3236       C  0.36528844  0.42557957  0.82665963     0.18700
C3237       C  0.36285190  0.40653075  0.82174560    -0.09300
C3238       C  0.37236539  0.39255847  0.83176428    -0.02200
H3239       H  0.37904432  0.44497006  0.84570234     0.05200
C3240       C  0.35647856  0.44043523  0.81498941     0.20600
H3241       H  0.37047816  0.37798579  0.82754128     0.10400
C3242       C  0.36711179  0.44884175  0.80047027    -0.15600
C3243       C  0.35841159  0.46012310  0.78673230     0.03400
C3244       C  0.33866287  0.46299517  0.78738305    -0.10900
C3245       C  0.32825801  0.45523625  0.80250369    -0.00900
C3246       C  0.33701034  0.44415952  0.81628267    -0.06100
H3247       H  0.38208815  0.44584491  0.79929035     0.06400
H3248       H  0.31315604  0.45761713  0.80350452     0.09800
Br3249     Br  0.34759897  0.39897819  0.80059930    -0.05800
Br3250     Br  0.40365709  0.42416749  0.87159454    -0.02700
Br3251     Br  0.37394981  0.46960441  0.76655653     0.00100
Br3252     Br  0.32176938  0.43376326  0.83623245    -0.04300
C3253       C  0.43077450  0.38726451  0.89289118    -0.11700
C3254       C  0.42458939  0.39033889  0.91168811     0.03800
C3255       C  0.43451533  0.40274178  0.92348556    -0.12200
C3256       C  0.45060633  0.41240709  0.91703455     0.18700
C3257       C  0.45733997  0.40874860  0.89862474    -0.09300
C3258       C  0.44745753  0.39630403  0.88676843    -0.02200
H3259       H  0.42942459  0.40516905  0.93775771     0.05200
C3260       C  0.45921912  0.42709180  0.92936239     0.20600
H3261       H  0.45250222  0.39420258  0.87243631     0.10400
C3262       C  0.47737715  0.42456772  0.93698191    -0.15600
C3263       C  0.48528043  0.43796178  0.94936920     0.03400
C3264       C  0.47485689  0.45426565  0.95441600    -0.10900
C3265       C  0.45675876  0.45669420  0.94655085    -0.00900
C3266       C  0.44899311  0.44342097  0.93418275    -0.06100
H3267       H  0.48530217  0.41195937  0.93352628     0.06400
H3268       H  0.44853960  0.46914084  0.94991181     0.09800
Br3269     Br  0.47929245  0.42122182  0.88865593    -0.05800
Br3270     Br  0.40328165  0.37762114  0.92265757    -0.02700
Br3271     Br  0.50976743  0.43247803  0.95965787     0.00100
Br3272     Br  0.42442959  0.44853437  0.92386611    -0.04300
C3273       C  0.46077800  0.29086285  0.75800697    -0.11700
C3274       C  0.46412670  0.30999998  0.76233538     0.03800
C3275       C  0.45617540  0.31799803  0.77859616    -0.12200
C3276       C  0.44497594  0.30726099  0.79099340     0.18700
C3277       C  0.44093566  0.28832967  0.78630413    -0.09300
C3278       C  0.44877510  0.28032289  0.76988786    -0.02200
H3279       H  0.45883785  0.33273802  0.78166762     0.05200
C3280       C  0.43748921  0.31643637  0.80840296     0.20600
H3281       H  0.44599134  0.26562313  0.76674053     0.10400
C3282       C  0.41798248  0.31890116  0.81054803    -0.15600
C3283       C  0.41056830  0.32960806  0.82547176     0.03400
C3284       C  0.42282770  0.33854009  0.83874769    -0.10900
C3285       C  0.44239090  0.33507490  0.83698156    -0.00900
C3286       C  0.44967695  0.32425760  0.82205830    -0.06100
H3287       H  0.40844489  0.31300495  0.80011876     0.06400
H3288       H  0.45242387  0.34103241  0.84673304     0.09800
Br3289     Br  0.42565429  0.27257217  0.80229221    -0.05800
Br3290     Br  0.47872914  0.32618965  0.74613597    -0.02700
Br3291     Br  0.38344689  0.33208771  0.82593180     0.00100
Br3292     Br  0.47656126  0.32069764  0.82086770    -0.04300
C3293       C  0.57477380  0.62177833  0.10680301    -0.11700
C3294       C  0.57895097  0.60266310  0.10265801     0.03800
C3295       C  0.56785935  0.59270090  0.08966775    -0.12200
C3296       C  0.55264468  0.60126375  0.08044145     0.18700
C3297       C  0.54874308  0.62036782  0.08399419    -0.09300
C3298       C  0.55975467  0.63042841  0.09701879    -0.02200
H3299       H  0.57088574  0.57795459  0.08699675     0.05200
C3300       C  0.54058814  0.58950434  0.06801715     0.20600
H3301       H  0.55640092  0.64509751  0.09966572     0.10400
C3302       C  0.52818947  0.57646109  0.07633927    -0.15600
C3303       C  0.51824040  0.56339530  0.06529802     0.03400
C3304       C  0.52084882  0.56304340  0.04543082    -0.10900
C3305       C  0.53257495  0.57682304  0.03709989    -0.00900
C3306       C  0.54245257  0.58990125  0.04820355    -0.06100
H3307       H  0.52651559  0.57623087  0.09158736     0.06400
H3308       H  0.53479161  0.57690754  0.02192552     0.09800
Br3309     Br  0.52807664  0.63304126  0.07198131    -0.05800
Br3310     Br  0.59839420  0.58835033  0.11479412    -0.02700
Br3311     Br  0.50103619  0.54684804  0.07829654     0.00100
Br3312     Br  0.55925692  0.60723584  0.03581951    -0.04300
C3313       C  0.52983330  0.72413598  0.23033989    -0.11700
C3314       C  0.52024413  0.70900146  0.22132506     0.03800
C3315       C  0.52887218  0.69952236  0.20627724    -0.12200
C3316       C  0.54689395  0.70470050  0.19998706     0.18700
C3317       C  0.55617517  0.72009865  0.20831967    -0.09300
C3318       C  0.54764077  0.72970255  0.22331388    -0.02200
H3319       H  0.52187735  0.68742727  0.20002444     0.05200
C3320       C  0.55698120  0.69205541  0.18697650     0.20600
H3321       H  0.55520518  0.74134717  0.22973452     0.10400
C3322       C  0.55546740  0.69434316  0.16739331    -0.15600
C3323       C  0.56523633  0.68237431  0.15497767     0.03400
C3324       C  0.57669760  0.66755692  0.16217849    -0.10900
C3325       C  0.57804629  0.66574526  0.18207713    -0.00900
C3326       C  0.56828622  0.67764451  0.19428130    -0.06100
H3327       H  0.54678095  0.70558268  0.16176278     0.06400
H3328       H  0.58684292  0.65548596  0.18885050     0.09800
Br3329     Br  0.58097798  0.72773409  0.20030424    -0.05800
Br3330     Br  0.49615005  0.69922558  0.22938545    -0.02700
Br3331     Br  0.56247669  0.68751094  0.12840605     0.00100
Br3332     Br  0.57098998  0.67374183  0.22107077    -0.04300
C3333       C  0.61888330  0.40567005  0.07131111    -0.11700
C3334       C  0.59908834  0.40444619  0.07370386     0.03800
C3335       C  0.58727551  0.41759003  0.06506051    -0.12200
C3336       C  0.59470656  0.43233669  0.05422800     0.18700
C3337       C  0.61443748  0.43423232  0.05246451    -0.09300
C3338       C  0.62635305  0.42072391  0.06066003    -0.02200
H3339       H  0.57208485  0.41620462  0.06664534     0.05200
C3340       C  0.58131235  0.44549717  0.04519488     0.20600
H3341       H  0.64152282  0.42214301  0.05899999     0.10400
C3342       C  0.57076659  0.45757796  0.05672934    -0.15600
C3343       C  0.55620043  0.46860017  0.04930779     0.03400
C3344       C  0.55197251  0.46775154  0.02964184    -0.10900
C3345       C  0.56288206  0.45570399  0.01811084    -0.00900
C3346       C  0.57727161  0.44452538  0.02574907    -0.06100
H3347       H  0.57361885  0.45806961  0.07178763     0.06400
H3348       H  0.55994249  0.45454862  0.00312052     0.09800
Br3349     Br  0.62557381  0.45541689  0.03975463    -0.05800
Br3350     Br  0.58679933  0.38485769  0.08759065    -0.02700
Br3351     Br  0.54283727  0.48387263  0.06746455     0.00100
Br3352     Br  0.59014467  0.42716537  0.00936302    -0.04300
C3353       C  0.66848889  0.35406283  0.06600115    -0.11700
C3354       C  0.65977192  0.34230282  0.05217181     0.03800
C3355       C  0.67011474  0.32805940  0.04313578    -0.12200
C3356       C  0.68915042  0.32501176  0.04740117     0.18700
C3357       C  0.69831124  0.33731934  0.05996325    -0.09300
C3358       C  0.68812675  0.35170907  0.06898833    -0.02200
H3359       H  0.66299524  0.31866766  0.03336063     0.05200
C3360       C  0.69851833  0.30773539  0.04021389     0.20600
H3361       H  0.69579768  0.36023005  0.07895617     0.10400
C3362       C  0.70811951  0.30800391  0.02284127    -0.15600
C3363       C  0.71636052  0.29153182  0.01551212     0.03400
C3364       C  0.71492229  0.27432102  0.02562568    -0.10900
C3365       C  0.70565184  0.27430417  0.04323152    -0.00900
C3366       C  0.69742328  0.29075111  0.05046644    -0.06100
H3367       H  0.70920474  0.32107279  0.01496912     0.06400
H3368       H  0.70441867  0.26133145  0.05123863     0.09800
Br3369     Br  0.72451257  0.33415159  0.06615124    -0.05800
Br3370     Br  0.63335036  0.34357485  0.04583268    -0.02700
Br3371     Br  0.73025835  0.29377199  0.99220683     0.00100
Br3372     Br  0.68446690  0.28935778  0.07431544    -0.04300
C3373       C  0.07238742  0.62979315  0.39039697    -0.11700
C3374       C  0.05563867  0.61916070  0.38786212     0.03800
C3375       C  0.04865465  0.60797495  0.40256909    -0.12200
C3376       C  0.05823020  0.60659224  0.41980535     0.18700
C3377       C  0.07525513  0.61661151  0.42225816    -0.09300
C3378       C  0.08209295  0.62822993  0.40768766    -0.02200
H3379       H  0.03590046  0.59977843  0.40034487     0.05200
C3380       C  0.05060976  0.59350404  0.43427704     0.20600
H3381       H  0.09502613  0.63612107  0.40992714     0.10400
C3382       C  0.05940522  0.57601643  0.43689882    -0.15600
C3383       C  0.05100845  0.56210060  0.44819055     0.03400
C3384       C  0.03331627  0.56542041  0.45684393    -0.10900
C3385       C  0.02503094  0.58332253  0.45505505    -0.00900
C3386       C  0.03350319  0.59728970  0.44380845    -0.06100
H3387       H  0.07267154  0.57304108  0.42980192     0.06400
H3388       H  0.01169758  0.58629108  0.46202076     0.09800
Br3389     Br  0.08950066  0.61494852  0.44523944    -0.05800
Br3390     Br  0.04253748  0.61737926  0.36425521    -0.02700
Br3391     Br  0.06486133  0.53927864  0.45221023     0.00100
Br3392     Br  0.02125203  0.62131401  0.44170782    -0.04300
C3393       C  0.02643895  0.72590555  0.25971073    -0.11700
C3394       C  0.01490897  0.71640603  0.27318385     0.03800
C3395       C  0.02294336  0.70926810  0.28973909    -0.12200
C3396       C  0.04238464  0.71070214  0.29314994     0.18700
C3397       C  0.05400361  0.71959272  0.27961176    -0.09300
C3398       C  0.04597163  0.72739283  0.26333252    -0.02200
H3399       H  0.01400477  0.70193569  0.29982836     0.05200
C3400       C  0.05042048  0.70037177  0.30944591     0.20600
H3401       H  0.05524644  0.73418878  0.25318872     0.10400
C3402       C  0.04783816  0.68086113  0.31015376    -0.15600
C3403       C  0.05628430  0.67000106  0.32419314     0.03400
C3404       C  0.06845372  0.67854090  0.33773632    -0.10900
C3405       C  0.06952776  0.69844838  0.33791858    -0.00900
C3406       C  0.06048777  0.70931337  0.32406438    -0.06100
H3407       H  0.03950663  0.67390987  0.29933778     0.06400
H3408       H  0.07729766  0.70589826  0.34867632     0.09800
Br3409     Br  0.08107484  0.71994265  0.28171837    -0.05800
Br3410     Br  0.98828136  0.71166953  0.27019485    -0.02700
Br3411     Br  0.05110477  0.64342358  0.32284828     0.00100
Br3412     Br  0.06179436  0.73628353  0.32601161    -0.04300
C3413       C  0.88532437  0.39756285  0.65223386    -0.11700
C3414       C  0.89133393  0.41651172  0.65286330     0.03800
C3415       C  0.88118857  0.42964421  0.66356940    -0.12200
C3416       C  0.86508868  0.42417863  0.67376180     0.18700
C3417       C  0.85849610  0.40549141  0.67238541    -0.09300
C3418       C  0.86871034  0.39230388  0.66178843    -0.02200
H3419       H  0.88621407  0.44406388  0.66444996     0.05200
C3420       C  0.85557602  0.43815375  0.68594609     0.20600
H3421       H  0.86397126  0.37776674  0.66140390     0.10400
C3422       C  0.84485586  0.45240632  0.67751164    -0.15600
C3423       C  0.83543571  0.46577063  0.68857443     0.03400
C3424       C  0.83659218  0.46489170  0.70854035    -0.10900
C3425       C  0.84805406  0.45107001  0.71691165    -0.00900
C3426       C  0.85754869  0.43777382  0.70576929    -0.06100
H3427       H  0.84377917  0.45309062  0.66223139     0.06400
H3428       H  0.84926627  0.45030405  0.73217443     0.09800
Br3429     Br  0.83578773  0.39738985  0.68489374    -0.05800
Br3430     Br  0.91401707  0.42503553  0.64077432    -0.02700
Br3431     Br  0.82206391  0.48538135  0.67546334     0.00100
Br3432     Br  0.87322856  0.41950393  0.71814843    -0.04300
C3433       C  0.97727766  0.46000049  0.54582349    -0.11700
C3434       C  0.98645185  0.44279674  0.55003464     0.03800
C3435       C  0.97763772  0.42955857  0.56194339    -0.12200
C3436       C  0.95973017  0.43304867  0.56982567     0.18700
C3437       C  0.95080286  0.45036578  0.56604611    -0.09300
C3438       C  0.95945674  0.46349869  0.55403710    -0.02200
H3439       H  0.98471259  0.41635191  0.56492801     0.05200
C3440       C  0.95095987  0.41883485  0.58258281     0.20600
H3441       H  0.95224516  0.47668413  0.55128822     0.10400
C3442       C  0.95890263  0.41578078  0.60044454    -0.15600
C3443       C  0.95063176  0.40322514  0.61336485     0.03400
C3444       C  0.93404019  0.39311221  0.60839763    -0.10900
C3445       C  0.92641231  0.39593430  0.59024147    -0.00900
C3446       C  0.93467664  0.40860457  0.57741680    -0.06100
H3447       H  0.97135754  0.42368056  0.60458015     0.06400
H3448       H  0.91392496  0.38820131  0.58592399     0.09800
Br3449     Br  0.92714642  0.45710385  0.57758619    -0.05800
Br3450     Br  0.01041640  0.43597183  0.53922109    -0.02700
Br3451     Br  0.96198148  0.40231424  0.63794352     0.00100
Br3452     Br  0.92334677  0.41126534  0.55291805    -0.04300
C3453       C  0.92872118  0.34265593  0.66001626    -0.11700
C3454       C  0.93958047  0.35055001  0.67504321     0.03800
C3455       C  0.94702393  0.33903738  0.68926045    -0.12200
C3456       C  0.94426740  0.31954394  0.68905361     0.18700
C3457       C  0.93418445  0.31138388  0.67403175    -0.09300
C3458       C  0.92663846  0.32280123  0.65969266    -0.02200
H3459       H  0.95493546  0.34539143  0.70073662     0.05200
C3460       C  0.95206172  0.30812924  0.70477454     0.20600
H3461       H  0.91905428  0.31576222  0.64855092     0.10400
C3462       C  0.94195376  0.30677751  0.72182374    -0.15600
C3463       C  0.94953477  0.29728691  0.73747425     0.03400
C3464       C  0.96758413  0.28878540  0.73616067    -0.10900
C3465       C  0.97766894  0.29027587  0.71903066    -0.00900
C3466       C  0.97007479  0.29985612  0.70346883    -0.06100
H3467       H  0.92828166  0.31354470  0.72309401     0.06400
H3468       H  0.99158109  0.28401980  0.71774336     0.09800
Br3469     Br  0.93005265  0.28467087  0.67281023    -0.05800
Br3470     Br  0.94438547  0.37707659  0.67795502    -0.02700
Br3471     Br  0.93529094  0.29801535  0.76065901     0.00100
Br3472     Br  0.98500529  0.30190557  0.68086649    -0.04300
C3473       C  0.89261525  0.43373193  0.38980971    -0.11700
C3474       C  0.89518455  0.42899270  0.40915336     0.03800
C3475       C  0.90801057  0.43926731  0.42020614    -0.12200
C3476       C  0.91824600  0.45440530  0.41257542     0.18700
C3477       C  0.91595311  0.45900449  0.39340290    -0.09300
C3478       C  0.90346721  0.44861270  0.38221429    -0.02200
H3479       H  0.90979956  0.43563660  0.43499157     0.05200
C3480       C  0.93136240  0.46519797  0.42474553     0.20600
H3481       H  0.90209420  0.45241944  0.36744187     0.10400
C3482       C  0.95087500  0.46395887  0.42141756    -0.15600
C3483       C  0.96378375  0.47376445  0.43274022     0.03400
C3484       C  0.95715058  0.48516032  0.44776702    -0.10900
C3485       C  0.93753527  0.48646406  0.45092429    -0.00900
C3486       C  0.92469204  0.47660679  0.43961486    -0.06100
H3487       H  0.95609602  0.45502040  0.41011952     0.06400
H3488       H  0.93213646  0.49504879  0.46241436     0.09800
Br3489     Br  0.92881277  0.48004656  0.38210604    -0.05800
Br3490     Br  0.88116483  0.40981954  0.42224302    -0.02700
Br3491     Br  0.99017637  0.46959270  0.42782333     0.00100
Br3492     Br  0.89819810  0.47931465  0.44492951    -0.04300
C3493       C  0.83986772  0.61527534  0.62652858    -0.11700
C3494       C  0.82735237  0.62148016  0.64090435     0.03800
C3495       C  0.82041249  0.60876078  0.65433616    -0.12200
C3496       C  0.82591154  0.58983279  0.65418209     0.18700
C3497       C  0.83866313  0.58356383  0.64019643    -0.09300
C3498       C  0.84551356  0.59624586  0.62651598    -0.02200
H3499       H  0.81087769  0.61375707  0.66526870     0.05200
C3500       C  0.81850027  0.57720695  0.66919633     0.20600
H3501       H  0.85513447  0.59115289  0.61571621     0.10400
C3502       C  0.80417677  0.56418311  0.66492509    -0.15600
C3503       C  0.79621855  0.55280094  0.67910465     0.03400
C3504       C  0.80262201  0.55436162  0.69797754    -0.10900
C3505       C  0.81667168  0.56772607  0.70223533    -0.00900
C3506       C  0.82463031  0.57902681  0.68805118    -0.06100
H3507       H  0.79901346  0.56304502  0.65054606     0.06400
H3508       H  0.82194679  0.56897360  0.71656552     0.09800
Br3509     Br  0.84747807  0.55800568  0.63965723    -0.05800
Br3510     Br  0.82023935  0.64729625  0.64433169    -0.02700
Br3511     Br  0.77594716  0.53617532  0.67208426     0.00100
Br3512     Br  0.84434188  0.59633463  0.69492693    -0.04300
C3513       C  0.88000287  0.61154391  0.57309369    -0.11700
C3514       C  0.87408678  0.59827156  0.55945796     0.03800
C3515       C  0.88755674  0.58766269  0.54952920    -0.12200
C3516       C  0.90696848  0.58994507  0.55305703     0.18700
C3517       C  0.91282871  0.60309204  0.56680992    -0.09300
C3518       C  0.89938834  0.61365312  0.57672052    -0.02200
H3519       H  0.88287658  0.57749527  0.53908577     0.05200
C3520       C  0.92090420  0.57822439  0.54267251     0.20600
H3521       H  0.90417188  0.62384907  0.58707260     0.10400
C3522       C  0.93406040  0.58686670  0.53050637    -0.15600
C3523       C  0.94818395  0.57629736  0.52145297     0.03400
C3524       C  0.94917201  0.55661733  0.52441179    -0.10900
C3525       C  0.93551525  0.54798255  0.53605339    -0.00900
C3526       C  0.92156224  0.55854982  0.54517811    -0.06100
H3527       H  0.93343793  0.60196041  0.52820594     0.06400
H3528       H  0.93601396  0.53291997  0.53858401     0.09800
Br3529     Br  0.93899256  0.60691657  0.57290478    -0.05800
Br3530     Br  0.84784730  0.59342012  0.55456396    -0.02700
Br3531     Br  0.96508270  0.58944973  0.50471819     0.00100
Br3532     Br  0.90445380  0.54548154  0.56176715    -0.04300
C3533       C  0.11740088  0.40026470  0.42758093    -0.11700
C3534       C  0.12393727  0.41449574  0.43989450     0.03800
C3535       C  0.11097619  0.42623973  0.44920292    -0.12200
C3536       C  0.09144723  0.42392814  0.44661055     0.18700
C3537       C  0.08490545  0.40969018  0.43435533    -0.09300
C3538       C  0.09785697  0.39806933  0.42488092    -0.02200
H3539       H  0.11614898  0.43739371  0.45831646     0.05200
C3540       C  0.07825889  0.43757509  0.45546337     0.20600
H3541       H  0.09263726  0.38708122  0.41558952     0.10400
C3542       C  0.07466374  0.45452015  0.44604730    -0.15600
C3543       C  0.06238152  0.46797409  0.45369140     0.03400
C3544       C  0.05349524  0.46474414  0.47142204    -0.10900
C3545       C  0.05734746  0.44772638  0.48094237    -0.00900
C3546       C  0.06947188  0.43414646  0.47302721    -0.06100
H3547       H  0.08146061  0.45727322  0.43256015     0.06400
H3548       H  0.05058808  0.44476592  0.49439433     0.09800
Br3549     Br  0.05842241  0.40572927  0.43011872    -0.05800
Br3550     Br  0.15040449  0.41911257  0.44364408    -0.02700
Br3551     Br  0.05910380  0.49056298  0.43914133     0.00100
Br3552     Br  0.07345611  0.41100765  0.48645152    -0.04300
C3553       C  0.10633838  0.58193671  0.61974425    -0.11700
C3554       C  0.09251929  0.56886697  0.62577166     0.03800
C3555       C  0.08087482  0.56008622  0.61242848    -0.12200
C3556       C  0.08283499  0.56410754  0.59311076     0.18700
C3557       C  0.09638226  0.57737217  0.58711959    -0.09300
C3558       C  0.10791305  0.58626209  0.60043216    -0.02200
H3559       H  0.07017083  0.55017483  0.61712049     0.05200
C3560       C  0.07014536  0.55489049  0.57943394     0.20600
H3561       H  0.11843195  0.59630084  0.59561659     0.10400
C3562       C  0.05392937  0.56444732  0.57356988    -0.15600
C3563       C  0.04166348  0.55644527  0.56034040     0.03400
C3564       C  0.04584102  0.53853998  0.55234793    -0.10900
C3565       C  0.06194445  0.52881711  0.55874458    -0.00900
C3566       C  0.07398913  0.53682193  0.57224246    -0.06100
H3567       H  0.05075561  0.57821567  0.57943188     0.06400
H3568       H  0.06539409  0.51506827  0.55302532     0.09800
Br3569     Br  0.09989169  0.58342927  0.56088604    -0.05800
Br3570     Br  0.08813848  0.56341317  0.65202433    -0.02700
Br3571     Br  0.01913107  0.57060366  0.55488225     0.00100
Br3572     Br  0.09569573  0.52280742  0.58030222    -0.04300
C3573       C  0.23882408  0.53664393  0.71267489    -0.11700
C3574       C  0.22102980  0.53699105  0.72192179     0.03800
C3575       C  0.20547198  0.54550330  0.71313368    -0.12200
C3576       C  0.20719248  0.55370641  0.69516724     0.18700
C3577       C  0.22476503  0.55305989  0.68577648    -0.09300
C3578       C  0.24032585  0.54450844  0.69447065    -0.02200
H3579       H  0.19194521  0.54576049  0.72036533     0.05200
C3580       C  0.19068733  0.56327077  0.68654970     0.20600
H3581       H  0.25375220  0.54427378  0.68705710     0.10400
C3582       C  0.19038094  0.58297298  0.68572289    -0.15600
C3583       C  0.17575190  0.59257234  0.67653605     0.03400
C3584       C  0.16082592  0.58241679  0.66766299    -0.10900
C3585       C  0.16080274  0.56254968  0.66963547    -0.00900
C3586       C  0.17554875  0.55306298  0.67878482    -0.06100
H3587       H  0.20187851  0.59095078  0.69194163     0.06400
H3588       H  0.14975252  0.55390872  0.66381183     0.09800
Br3589     Br  0.22808069  0.56349860  0.66093612    -0.05800
Br3590     Br  0.21665615  0.52522016  0.74603740    -0.02700
Br3591     Br  0.17779807  0.61963375  0.67607747     0.00100
Br3592     Br  0.17496232  0.52600373  0.67935409    -0.04300
C3593       C  0.92547990  0.67463786  0.83913283    -0.11700
C3594       C  0.94010008  0.66704801  0.82749477     0.03800
C3595       C  0.94775004  0.67770099  0.81269964    -0.12200
C3596       C  0.94133201  0.69593923  0.80901075     0.18700
C3597       C  0.92745304  0.70391562  0.82075828    -0.09300
C3598       C  0.91978184  0.69342263  0.83568085    -0.02200
H3599       H  0.95846121  0.67150949  0.80363867     0.05200
C3600       C  0.94856527  0.70598190  0.79219095     0.20600
H3601       H  0.90869187  0.70004533  0.84370602     0.10400
C3602       C  0.94284461  0.70001268  0.77413945    -0.15600
C3603       C  0.94959871  0.70904938  0.75785981     0.03400
C3604       C  0.96208551  0.72443356  0.75960928    -0.10900
C3605       C  0.96765644  0.73047535  0.77766589    -0.00900
C3606       C  0.96123737  0.72118901  0.79389381    -0.06100
H3607       H  0.93310369  0.68828506  0.77273961     0.06400
H3608       H  0.97756791  0.74205863  0.77911405     0.09800
Br3609     Br  0.91745511  0.72862725  0.81603366    -0.05800
Br3610     Br  0.94950739  0.64166391  0.82971076    -0.02700
Br3611     Br  0.94088953  0.70037621  0.73366167     0.00100
Br3612     Br  0.97093474  0.72903918  0.81797767    -0.04300
C3613       C  0.02823511  0.79088788  0.76301364    -0.11700
C3614       C  0.01740925  0.80028504  0.77713497     0.03800
C3615       C  0.02648480  0.80911568  0.79236032    -0.12200
C3616       C  0.04618931  0.80894094  0.79399847     0.18700
C3617       C  0.05698645  0.79918713  0.78043627    -0.09300
C3618       C  0.04804395  0.79029354  0.76519476    -0.02200
H3619       H  0.01811848  0.81663711  0.80277481     0.05200
C3620       C  0.05524961  0.82041235  0.80897175     0.20600
H3621       H  0.05677122  0.78312402  0.75484300     0.10400
C3622       C  0.05451091  0.81465752  0.82793198    -0.15600
C3623       C  0.06283948  0.82557880  0.84229321     0.03400
C3624       C  0.07288876  0.84235346  0.83770527    -0.10900
C3625       C  0.07186816  0.84867024  0.81872868    -0.00900
C3626       C  0.06345863  0.83786733  0.80455243    -0.06100
H3627       H  0.04721575  0.80171108  0.83159874     0.06400
H3628       H  0.07690339  0.86240435  0.81457713     0.09800
Br3629     Br  0.08404008  0.79787711  0.78205144    -0.05800
Br3630     Br  0.99027790  0.80204744  0.77697895    -0.02700
Br3631     Br  0.05868053  0.81725354  0.86780016     0.00100
Br3632     Br  0.06272239  0.84804789  0.77936740    -0.04300
C3633       C  0.11036568  0.63331699  0.66142036    -0.11700
C3634       C  0.09097698  0.63458369  0.65665760     0.03800
C3635       C  0.07982862  0.64907822  0.66418957    -0.12200
C3636       C  0.08745325  0.66242305  0.67664392     0.18700
C3637       C  0.10661022  0.66100154  0.68181190    -0.09300
C3638       C  0.11788783  0.64663214  0.67414611    -0.02200
H3639       H  0.06499752  0.64984908  0.66044605     0.05200
C3640       C  0.07496509  0.67741667  0.68427776     0.20600
H3641       H  0.13263334  0.64584997  0.67818385     0.10400
C3642       C  0.06054383  0.67257179  0.69707136    -0.15600
C3643       C  0.04766656  0.68611819  0.70362864     0.03400
C3644       C  0.04915732  0.70501469  0.69740023    -0.10900
C3645       C  0.06388962  0.70984865  0.68488327    -0.00900
C3646       C  0.07653592  0.69623616  0.67813601    -0.06100
H3647       H  0.05919750  0.65810708  0.70183592     0.06400
H3648       H  0.06509405  0.72415441  0.67962538     0.09800
Br3649     Br  0.11772949  0.67791590  0.69984206    -0.05800
Br3650     Br  0.07815069  0.61629972  0.64136366    -0.02700
Br3651     Br  0.02876209  0.67796424  0.72140229     0.00100
Br3652     Br  0.09480187  0.70374314  0.65946056    -0.04300
C3653       C  0.96153425  0.71383082  0.65649755    -0.11700
C3654       C  0.96366826  0.69398990  0.65726899     0.03800
C3655       C  0.95090497  0.68227214  0.64776297    -0.12200
C3656       C  0.93604332  0.68989876  0.63723215     0.18700
C3657       C  0.93432931  0.70965218  0.63574288    -0.09300
C3658       C  0.94711299  0.72143917  0.64521433    -0.02200
H3659       H  0.95241758  0.66710208  0.64880040     0.05200
C3660       C  0.92175467  0.67709824  0.62894286     0.20600
H3661       H  0.94516295  0.73657588  0.64453388     0.10400
C3662       C  0.90851791  0.66835571  0.64093071    -0.15600
C3663       C  0.89344906  0.65792426  0.63345618     0.03400
C3664       C  0.89145453  0.65629814  0.61372934    -0.10900
C3665       C  0.90536515  0.66403324  0.60181394    -0.00900
C3666       C  0.92057235  0.67419381  0.60928638    -0.06100
H3667       H  0.90950031  0.67028439  0.65610854     0.06400
H3668       H  0.90403259  0.66266825  0.58659876     0.09800
Br3669     Br  0.91391563  0.72113460  0.62211680    -0.05800
Br3670     Br  0.98391292  0.68193600  0.67072264    -0.02700
Br3671     Br  0.87518400  0.64749596  0.65060676     0.00100
Br3672     Br  0.93917229  0.68415696  0.59218436    -0.44300
C3673       C  0.72224991  0.23970407  0.53859405    -0.11700
C3674       C  0.73207153  0.22232418  0.53947489     0.03800
C3675       C  0.72304479  0.20623394  0.54681088    -0.12200
C3676       C  0.70435755  0.20713618  0.55342506     0.18700
C3677       C  0.69468827  0.22445608  0.55278888    -0.09300
C3678       C  0.70354863  0.24042619  0.54531193    -0.02200
H3679       H  0.73062161  0.19297882  0.54737778     0.05200
C3680       C  0.69513067  0.19033659  0.56184495     0.20600
H3681       H  0.69575222  0.25356040  0.54486424     0.10400
C3682       C  0.69259857  0.18984268  0.58141184    -0.15600
C3683       C  0.68090388  0.17638604  0.58987839     0.03400
C3684       C  0.67103676  0.16288143  0.57866116    -0.10900
C3685       C  0.67508039  0.16252256  0.55905587    -0.00900
C3686       C  0.68698374  0.17606746  0.55069720    -0.06100
H3687       H  0.69912120  0.20062261  0.59011622     0.06400
H3688       H  0.66883839  0.15212897  0.54986568     0.09800
Br3689     Br  0.66920316  0.22695717  0.56188273    -0.05800
Br3690     Br  0.75735707  0.21927125  0.53006479    -0.02700
Br3691     Br  0.67850232  0.17852943  0.61685632     0.00100
Br3692     Br  0.69102753  0.17514296  0.52387122    -0.04300
C3693       C  0.69239024  0.30724654  0.45748975    -0.11700
C3694       C  0.67528206  0.31540927  0.46418953     0.03800
C3695       C  0.66170653  0.32199239  0.45131233    -0.12200
C3696       C  0.66470035  0.32089827  0.43172409     0.18700
C3697       C  0.68152693  0.31270899  0.42498539    -0.09300
C3698       C  0.69506912  0.30594869  0.43774355    -0.02200
H3699       H  0.64886037  0.32843112  0.45662994     0.05200
C3700       C  0.65039296  0.32883766  0.41854047     0.20600
H3701       H  0.70793455  0.29986469  0.43208584     0.10400
C3702       C  0.65458129  0.34533746  0.40838097    -0.15600
C3703       C  0.64168661  0.35293189  0.39538517     0.03400
C3704       C  0.62397476  0.34408242  0.39249360    -0.10900
C3705       C  0.61978984  0.32766400  0.40293215    -0.00900
C3706       C  0.63277267  0.32003756  0.41576137    -0.06100
H3707       H  0.66815600  0.35216348  0.41033652     0.06400
H3708       H  0.60628650  0.32067001  0.40112468     0.09800
Br3709     Br  0.68659063  0.31037942  0.39839427    -0.05800
Br3710     Br  0.66968180  0.31936490  0.49052941    -0.02700
Br3711     Br  0.65002218  0.37439520  0.38109577     0.00100
Br3712     Br  0.62611953  0.29712911  0.42859697    -0.04300
C3713       C  0.80687891  0.31664633  0.54790456    -0.11700
C3714       C  0.81431180  0.30624019  0.56327443     0.03800
C3715       C  0.82938548  0.31363374  0.57396897    -0.12200
C3716       C  0.83726089  0.33136233  0.56977516     0.18700
C3717       C  0.83015504  0.34156277  0.55431147    -0.09300
C3718       C  0.81519663  0.33424700  0.54361531    -0.02200
H3719       H  0.83472362  0.30568968  0.58590440     0.05200
C3720       C  0.85255016  0.33923837  0.58189594     0.20600
H3721       H  0.80999091  0.34251062  0.53184042     0.10400
C3722       C  0.87131374  0.33340852  0.57910101    -0.15600
C3723       C  0.88595658  0.34041495  0.59051856     0.03400
C3724       C  0.88191061  0.35325433  0.60522953    -0.10900
C3725       C  0.86326592  0.35960009  0.60757380    -0.00900
C3726       C  0.84865085  0.35271765  0.59606287    -0.06100
H3727       H  0.87458328  0.32344358  0.56794248     0.06400
H3728       H  0.85996407  0.36952430  0.61876647     0.09800
Br3729     Br  0.84042305  0.36565968  0.54734792    -0.05800
Br3730     Br  0.80378172  0.28259395  0.57129253    -0.02700
Br3731     Br  0.91139453  0.33279948  0.58497422     0.00100
Br3732     Br  0.82347587  0.36175536  0.60047198    -0.04300
C3733       C  0.70900906  0.33983473  0.54995771    -0.11700
C3734       C  0.71308921  0.35857168  0.55576585     0.03800
C3735       C  0.70136228  0.36752082  0.56898372    -0.12200
C3736       C  0.68574426  0.35819767  0.57682131     0.18700
C3737       C  0.68183386  0.33955583  0.57151004    -0.09300
C3738       C  0.69332514  0.33058020  0.55818919    -0.02200
H3739       H  0.70445603  0.38188315  0.57323699     0.05200
C3740       C  0.67366742  0.36826121  0.59048918     0.20600
H3741       H  0.68986662  0.31620811  0.55431066     0.10400
C3742       C  0.65925787  0.38001003  0.58377945    -0.15600
C3743       C  0.64849103  0.39094496  0.59628267     0.03400
C3744       C  0.65204807  0.39002757  0.61590522    -0.10900
C3745       C  0.66611824  0.37770571  0.62255346    -0.00900
C3746       C  0.67699225  0.36700572  0.61002523    -0.06100
H3747       H  0.65679908  0.38111454  0.56868996     0.06400
H3748       H  0.66905120  0.37682423  0.63757144     0.09800
Br3749     Br  0.66091826  0.32586348  0.58211358    -0.05800
Br3750     Br  0.73416717  0.37311825  0.54660622    -0.02700
Br3751     Br  0.63063608  0.40808379  0.58542103     0.00100
Br3752     Br  0.69686185  0.35161223  0.62007826    -0.04300
C3753       C  0.77960227  0.34812686  0.45981576    -0.11700
C3754       C  0.77587903  0.34892186  0.44024381     0.03800
C3755       C  0.78803881  0.35895994  0.42834919    -0.12200
C3756       C  0.80424297  0.36782393  0.43555861     0.18700
C3757       C  0.80735991  0.36794711  0.45524442    -0.09300
C3758       C  0.79493969  0.35826994  0.46722541    -0.02200
H3759       H  0.78522424  0.35929609  0.41328441     0.05200
C3760       C  0.81792849  0.37628855  0.42220469     0.20600
H3761       H  0.79797504  0.35767062  0.48223885     0.10400
C3762       C  0.82112548  0.39579157  0.42264778    -0.15600
C3763       C  0.83315400  0.40432155  0.40947480     0.03400
C3764       C  0.84234159  0.39323930  0.39563744    -0.10900
C3765       C  0.83892864  0.37382083  0.39506052    -0.00900
C3766       C  0.82707555  0.36523380  0.40834501    -0.06100
H3767       H  0.81383255  0.40446776  0.43295858     0.06400
H3768       H  0.84464935  0.36542961  0.38365730     0.09800
Br3769     Br  0.82920832  0.37961350  0.46630000    -0.05800
Br3770     Br  0.75452457  0.33646927  0.42899521    -0.02700
Br3771     Br  0.83564817  0.43130339  0.41027348     0.00100
Br3772     Br  0.82369519  0.33840001  0.40673152    -0.04300
C3773       C  0.15842027  0.89425018  0.62284319    -0.11700
C3774       C  0.17403535  0.90646130  0.62078883     0.03800
C3775       C  0.18042969  0.91693524  0.63627573    -0.12200
C3776       C  0.17152471  0.91555755  0.65397987     0.18700
C3777       C  0.15571557  0.90358006  0.65601967    -0.09300
C3778       C  0.14931288  0.89303048  0.64049725    -0.02200
H3779       H  0.19228651  0.92646718  0.63443703     0.05200
C3780       C  0.17814711  0.92808045  0.66941566     0.20600
H3781       H  0.13726277  0.88372729  0.64225178     0.10400
C3782       C  0.17525314  0.94750553  0.66752804    -0.15600
C3783       C  0.18246070  0.96026751  0.68076086     0.03400
C3784       C  0.19313048  0.95364137  0.69638256    -0.10900
C3785       C  0.19569400  0.93404789  0.69841250    -0.00900
C3786       C  0.18841243  0.92132035  0.68505643    -0.06100
H3787       H  0.16730488  0.95279562  0.65556152     0.06400
H3788       H  0.20363098  0.92858625  0.71029518     0.09800
Br3789     Br  0.14202221  0.90170931  0.67941662    -0.05800
Br3790     Br  0.18635865  0.91038796  0.59689490    -0.02700
Br3791     Br  0.17610849  0.98634361  0.67677387     0.00100
Br3792     Br  0.19352221  0.89496473  0.68832653    -0.04300
C3793       C  0.03886586  0.79949743  0.66176404    -0.11700
C3794       C  0.04127609  0.79911746  0.64191604     0.03800
C3795       C  0.05415888  0.81152413  0.63334956    -0.12200
C3796       C  0.06454196  0.82443891  0.64423535     0.18700
C3797       C  0.06115855  0.82572651  0.66377017    -0.09300
C3798       C  0.04853612  0.81325870  0.67236746    -0.02200
H3799       H  0.05667514  0.81057105  0.61824604     0.05200
C3800       C  0.08006134  0.83515302  0.63532441     0.20600
H3801       H  0.04649980  0.81415440  0.68754633     0.10400
C3802       C  0.07596866  0.84998703  0.62290032    -0.15600
C3803       C  0.09049464  0.85941871  0.61323562     0.03400
C3804       C  0.10945777  0.85389885  0.61597999    -0.10900
C3805       C  0.11345775  0.83953471  0.62905560    -0.00900
C3806       C  0.09899585  0.83005274  0.63852434    -0.06100
H3807       H  0.06139110  0.85390223  0.62036300     0.06400
H3808       H  0.12793945  0.83509692  0.63130142     0.09800
Br3809     Br  0.07384943  0.84398371  0.67930703    -0.05800
Br3810     Br  0.02873936  0.78114096  0.62595368    -0.02700
Br3811     Br  0.08324995  0.87842353  0.59545933     0.00100
Br3812     Br  0.10577669  0.80926451  0.65454733    -0.04300
C3813       C  0.11920758  0.89651460  0.56814393    -0.11700
C3814       C  0.10793323  0.89045312  0.55275973     0.03800
C3815       C  0.09593072  0.90320977  0.54367890    -0.12200
C3816       C  0.09452721  0.92196500  0.54976480     0.18700
C3817       C  0.10546828  0.92796580  0.56530420    -0.09300
C3818       C  0.11777071  0.91531045  0.57424175    -0.02200
H3819       H  0.08710903  0.89829797  0.53216204     0.05200
C3820       C  0.08013718  0.93432223  0.54089035     0.20600
H3821       H  0.12600788  0.92008976  0.58623448     0.10400
C3822       C  0.06099612  0.92993191  0.54346453    -0.15600
C3823       C  0.04673998  0.94102540  0.53548134     0.03400
C3824       C  0.05153559  0.95721682  0.52462403    -0.10900
C3825       C  0.07087250  0.96129531  0.52178448    -0.00900
C3826       C  0.08506613  0.94991919  0.52959685    -0.06100
H3827       H  0.05710527  0.91777214  0.55192272     0.06400
H3828       H  0.07505282  0.97331636  0.51328682     0.09800
Br3829     Br  0.10307606  0.95285126  0.57568629    -0.05800
Br3830     Br  0.10627890  0.86454652  0.54488088    -0.02700
Br3831     Br  0.02125100  0.93305813  0.54073572     0.00100
Br3832     Br  0.11095564  0.95570917  0.52380187    -0.04300
C3833       C  0.11756222  0.11294511  0.65181326    -0.11700
C3834       C  0.13380149  0.11546000  0.66300879     0.03800
C3835       C  0.14136950  0.10019802  0.67291369    -0.12200
C3836       C  0.13296499  0.08232019  0.67182549     0.18700
C3837       C  0.11712392  0.07960612  0.66011835    -0.09300
C3838       C  0.10953011  0.09491099  0.65016344    -0.02200
H3839       H  0.15376016  0.10230318  0.68165980     0.05200
C3840       C  0.14120508  0.06677354  0.68295733     0.20600
H3841       H  0.09691976  0.09289978  0.64171257     0.10400
C3842       C  0.13466978  0.06334580  0.70139079    -0.15600
C3843       C  0.14378588  0.05030074  0.71316626     0.03400
C3844       C  0.15985950  0.04043864  0.70641816    -0.10900
C3845       C  0.16572864  0.04345155  0.68756818    -0.00900
C3846       C  0.15663630  0.05650459  0.67595963    -0.06100
H3847       H  0.12280875  0.07134683  0.70685340     0.06400
H3848       H  0.17782363  0.03597520  0.68188406     0.09800
Br3849     Br  0.10529631  0.05537887  0.65774508    -0.05800
Br3850     Br  0.14612783  0.13946095  0.66512272    -0.02700
Br3851     Br  0.13426886  0.04791589  0.73854515     0.00100
Br3852     Br  0.16622739  0.06048619  0.65084678    -0.04300
C3853       C  0.07359052  0.12054175  0.60627828    -0.11700
C3854       C  0.07946885  0.11833693  0.58727045     0.03800
C3855       C  0.06981122  0.10585659  0.57532599    -0.12200
C3856       C  0.05417836  0.09553283  0.58183783     0.18700
C3857       C  0.04825614  0.09768291  0.60074198    -0.09300
C3858       C  0.05788508  0.11012960  0.61272844    -0.02200
H3859       H  0.07447742  0.10423294  0.56079738     0.05200
C3860       C  0.04506662  0.08175142  0.56898903     0.20600
H3861       H  0.05328326  0.11139946  0.62730868     0.10400
C3862       C  0.05493862  0.06532130  0.56423518    -0.15600
C3863       C  0.04706745  0.05183153  0.55213757     0.03400
C3864       C  0.02876951  0.05464751  0.54449486    -0.10900
C3865       C  0.01891569  0.07120754  0.54930540    -0.00900
C3866       C  0.02699678  0.08479183  0.56124894    -0.06100
H3867       H  0.06886482  0.06291538  0.57012093     0.06400
H3868       H  0.00503031  0.07381509  0.54342765     0.09800
Br3869     Br  0.02766529  0.08328219  0.61104201    -0.05800
Br3870     Br  0.09972723  0.13262245  0.57623796    -0.02700
Br3871     Br  0.06194621  0.02960362  0.54755810     0.00100
Br3872     Br  0.01325308  0.10763659  0.56591614    -0.04300
C3873       C  0.03511333  0.22016509  0.73716772    -0.11700
C3874       C  0.04293148  0.23000366  0.72146314     0.03800
C3875       C  0.05083199  0.21994779  0.70633334    -0.12200
C3876       C  0.05118632  0.20022273  0.70632970     0.18700
C3877       C  0.04395683  0.19037279  0.72202466    -0.09300
C3878       C  0.03593688  0.20029627  0.73715062    -0.02200
H3879       H  0.05661168  0.22757854  0.69435063     0.05200
C3880       C  0.05962697  0.19020352  0.69001959     0.20600
H3881       H  0.03039199  0.19232996  0.74901045     0.10400
C3882       C  0.07924748  0.19025822  0.68781314    -0.15600
C3883       C  0.08791858  0.18017683  0.67316968     0.03400
C3884       C  0.07684776  0.16968075  0.66002745    -0.10900
C3885       C  0.05695727  0.17051022  0.66200917    -0.00900
C3886       C  0.04842426  0.18057677  0.67677826    -0.06100
H3887       H  0.08793455  0.19785754  0.69788090     0.06400
H3888       H  0.04763257  0.16305011  0.65262096     0.09800
Br3889     Br  0.04521810  0.16337702  0.72363258    -0.05800
Br3890     Br  0.04308186  0.25701184  0.71899411    -0.02700
Br3891     Br  0.11509511  0.18098811  0.67284684     0.00100
Br3892     Br  0.02132281  0.18070365  0.67841279    -0.04300
C3893       C  0.09812897  0.08095276  0.37767546    -0.11700
C3894       C  0.08536206  0.06703776  0.37105992     0.03800
C3895       C  0.07330268  0.05774721  0.38381046    -0.12200
C3896       C  0.07347562  0.06225204  0.40313125     0.18700
C3897       C  0.08527312  0.07691566  0.40951072    -0.09300
C3898       C  0.09730126  0.08619085  0.39679986    -0.02200
H3899       H  0.06392223  0.04679499  0.37867942     0.05200
C3900       C  0.06187875  0.05113617  0.41661978     0.20600
H3901       H  0.10645792  0.09709580  0.40209888     0.10400
C3902       C  0.07093155  0.03858904  0.42895509    -0.15600
C3903       C  0.06071787  0.02861601  0.44270093     0.03400
C3904       C  0.04093990  0.03111086  0.44428980    -0.10900
C3905       C  0.03183176  0.04319112  0.43139861    -0.00900
C3906       C  0.04212866  0.05320298  0.41771385    -0.06100
H3907       H  0.08610602  0.03669906  0.42798991     0.06400
H3908       H  0.01670287  0.04538589  0.43236927     0.09800
Br3909     Br  0.08555281  0.08462073  0.43554545    -0.05800
Br3910     Br  0.08301168  0.06077411  0.34471693    -0.02700
Br3911     Br  0.07462014  0.01137228  0.45832855     0.00100
Br3912     Br  0.02882052  0.07033499  0.40152661    -0.04300
C3913       C  0.23235003  0.03721307  0.28363976    -0.11700
C3914       C  0.23072892  0.05614318  0.28975719     0.03800
C3915       C  0.21389085  0.06238631  0.29814772    -0.12200
C3916       C  0.19844264  0.05018013  0.30055245     0.18700
C3917       C  0.19987395  0.03143823  0.29430846    -0.09300
C3918       C  0.21674507  0.02506552  0.28612322    -0.02200
H3919       H  0.21298831  0.07675735  0.30329533     0.05200
C3920       C  0.18182769  0.05688406  0.31136887     0.20600
H3921       H  0.21764201  0.01047797  0.28170593     0.10400
C3922       C  0.16527345  0.06252268  0.30206024    -0.15600
C3923       C  0.15036254  0.07101428  0.31212810     0.03400
C3924       C  0.15257494  0.07516339  0.33164336    -0.10900
C3925       C  0.16789839  0.06657745  0.34110375    -0.00900
C3926       C  0.18256672  0.05795185  0.33116074    -0.06100
H3927       H  0.16393230  0.06024106  0.28696335     0.06400
H3928       H  0.16896868  0.06721654  0.35636889     0.09800
Br3929     Br  0.17935891  0.01395866  0.29729790    -0.05800
Br3930     Br  0.25130863  0.07382262  0.28858494    -0.02700
Br3931     Br  0.12671254  0.07354408  0.29908635     0.00100
Br3932     Br  0.20358052  0.04814714  0.34519277    -0.04300
C3933       C  0.94910555  0.81073475  0.69037476    -0.11700
C3934       C  0.93378718  0.81652382  0.70190890     0.03800
C3935       C  0.92208151  0.83136488  0.69597380    -0.12200
C3936       C  0.92542496  0.84067897  0.67876085     0.18700
C3937       C  0.94084814  0.83522829  0.66749576    -0.09300
C3938       C  0.95244151  0.82040450  0.67327400    -0.02200
H3939       H  0.91015964  0.83550002  0.70468659     0.05200
C3940       C  0.91247038  0.85570922  0.67234282     0.20600
H3941       H  0.96420630  0.81644820  0.66426691     0.10400
C3942       C  0.91750117  0.87466075  0.67503551    -0.15600
C3943       C  0.90591333  0.88916607  0.66830561     0.03400
C3944       C  0.88907548  0.88477569  0.65865756    -0.10900
C3945       C  0.88405211  0.86583724  0.65593865    -0.00900
C3946       C  0.89563196  0.85132115  0.66268484    -0.06100
H3947       H  0.93053142  0.87815118  0.68227728     0.06400
H3948       H  0.87097399  0.86233541  0.64881963     0.09800
Br3949     Br  0.94633742  0.84739454  0.64384603    -0.05800
Br3950     Br  0.92735822  0.80418467  0.72523667    -0.02700
Br3951     Br  0.91367125  0.91478212  0.67237928     0.00100
Br3952     Br  0.88812747  0.82569600  0.65822940    -0.04300
C3953       C  0.89109957  0.93817506  0.62006244    -0.11700
C3954       C  0.88574168  0.95419276  0.60940134     0.03800
C3955       C  0.89885668  0.96299544  0.59746353    -0.12200
C3956       C  0.91729303  0.95608227  0.59572022     0.18700
C3957       C  0.92279729  0.94033666  0.60651338    -0.09300
C3958       C  0.90970159  0.93144959  0.61847905    -0.02200
H3959       H  0.89444978  0.97489829  0.58893872     0.05200
C3960       C  0.92990294  0.96434266  0.58118835     0.20600
H3961       H  0.91406710  0.91924191  0.62657103     0.10400
C3962       C  0.93941753  0.98135238  0.58474001    -0.15600
C3963       C  0.95130118  0.98942154  0.57098789     0.03400
C3964       C  0.95375535  0.98035554  0.55330779    -0.10900
C3965       C  0.94396095  0.96343411  0.54984594    -0.00900
C3966       C  0.93202187  0.95554418  0.56348984    -0.06100
H3967       H  0.93773296  0.98825863  0.59831901     0.06400
H3968       H  0.94543519  0.95635980  0.53632911     0.09800
Br3969     Br  0.94798958  0.93045165  0.60510761    -0.05800
Br3970     Br  0.86039061  0.96382421  0.60900440    -0.02700
Br3971     Br  0.96458002  0.01209627  0.57767310     0.00100
Br3972     Br  0.91846104  0.93293292  0.55718935    -0.04300
C3973       C  0.76365077  0.97686365  0.72097652    -0.11700
C3974       C  0.77940172  0.98844318  0.71646191     0.03800
C3975       C  0.79502835  0.98073024  0.70703325    -0.12200
C3976       C  0.79535088  0.96162906  0.70206365     0.18700
C3977       C  0.78006159  0.94995599  0.70708002    -0.09300
C3978       C  0.76443938  0.95756177  0.71649421    -0.02200
H3979       H  0.80684874  0.98973126  0.70326423     0.05200
C3980       C  0.81093570  0.95427111  0.69031828     0.20600
H3981       H  0.75263534  0.94839329  0.71986670     0.10400
C3982       C  0.82789325  0.94846825  0.69867840    -0.15600
C3983       C  0.84209974  0.93978882  0.68784246     0.03400
C3984       C  0.83877162  0.93567084  0.66844208    -0.10900
C3985       C  0.82269300  0.94386989  0.65995337    -0.00900
C3986       C  0.80879701  0.95276565  0.67067846    -0.06100
H3987       H  0.83011827  0.95082505  0.71365912     0.06400
H3988       H  0.82066494  0.94322239  0.64479652     0.09800
Br3989     Br  0.77976971  0.92361178  0.70084297    -0.05800
Br3990     Br  0.78098387  0.01464719  0.72326971    -0.02700
Br3991     Br  0.86609078  0.93651128  0.70009173     0.00100
Br3992     Br  0.78699141  0.96252687  0.65788482    -0.04300
C3993       C  0.88409021  0.11433932  0.42834056    -0.11700
C3994       C  0.90401347  0.11546874  0.42722362     0.03800
C3995       C  0.91520980  0.10211535  0.43648249    -0.12200
C3996       C  0.90699537  0.08744912  0.44690585     0.18700
C3997       C  0.88717074  0.08608330  0.44791575    -0.09300
C3998       C  0.87588632  0.09952128  0.43876353    -0.02200
H3999       H  0.93047516  0.10327311  0.43570970     0.05200
C4000       C  0.91951915  0.07383669  0.45660031     0.20600
H4001       H  0.86063694  0.09838521  0.43976001     0.10400
C4002       C  0.92592975  0.07775980  0.47494063    -0.15600
C4003       C  0.93910220  0.06599719  0.48392426     0.03400
C4004       C  0.94606148  0.04975838  0.47445855    -0.10900
C4005       C  0.93921784  0.04585929  0.45612249    -0.00900
C4006       C  0.92623920  0.05774270  0.44720144    -0.06100
H4007       H  0.92099561  0.09033535  0.48212452     0.06400
H4008       H  0.94417289  0.03359474  0.44844493     0.09800
Br4009     Br  0.87504490  0.06610150  0.46162474    -0.05800
Br4010     Br  0.91705889  0.13546815  0.41452883    -0.02700
Br4011     Br  0.94762761  0.07389204  0.50847658     0.00100
Br4012     Br  0.91851221  0.05181390  0.42187518    -0.04300
C4013       C  0.78455348  0.24392362  0.47014864    -0.11700
C4014       C  0.79170071  0.24420387  0.45146371     0.03800
C4015       C  0.80025357  0.22801352  0.44392778    -0.12200
C4016       C  0.80189163  0.21147844  0.45473089     0.18700
C4017       C  0.79485248  0.21122067  0.47333504    -0.09300
C4018       C  0.78631594  0.22731651  0.48086311    -0.02200
H4019       H  0.80604301  0.22843544  0.42972075     0.05200
C4020       C  0.81213962  0.19509390  0.44682031     0.20600
H4021       H  0.78091149  0.22679430  0.49519101     0.10400
C4022       C  0.83031587  0.19116796  0.45337146    -0.15600
C4023       C  0.84118865  0.17681073  0.44529183     0.03400
C4024       C  0.83402651  0.16597174  0.42989854    -0.10900
C4025       C  0.81518924  0.16949407  0.42417619    -0.00900
C4026       C  0.80435894  0.18380609  0.43250970    -0.06100
H4027       H  0.83627612  0.19968432  0.46462374     0.06400
H4028       H  0.80874390  0.16192704  0.41267718     0.09800
Br4029     Br  0.79638557  0.18911593  0.48890326    -0.05800
Br4030     Br  0.79163199  0.26657552  0.43615959    -0.02700
Br4031     Br  0.86593749  0.17370722  0.45596350     0.00100
Br4032     Br  0.77898726  0.18764036  0.42378179    -0.04300
C4033       C  0.92749020  0.88334265  0.39458596    -0.11700
C4034       C  0.92053346  0.88791648  0.41285228     0.03800
C4035       C  0.93027131  0.90090935  0.42421256    -0.12200
C4036       C  0.94714230  0.90925758  0.41801414     0.18700
C4037       C  0.95466017  0.90406163  0.40035583    -0.09300
C4038       C  0.94482043  0.89138286  0.38878053    -0.02200
H4039       H  0.92464122  0.90454641  0.43801453     0.05200
C4040       C  0.95639238  0.92372917  0.42997361     0.20600
H4041       H  0.95055771  0.88824825  0.37491512     0.10400
C4042       C  0.96919226  0.91821413  0.44402054    -0.15600
C4043       C  0.97768921  0.93159290  0.45592567     0.03400
C4044       C  0.97315710  0.95096461  0.45402310    -0.10900
C4045       C  0.96064918  0.95638670  0.43956561    -0.00900
C4046       C  0.95231797  0.94299311  0.42764001    -0.06100
H4047       H  0.97263682  0.90342278  0.44567328     0.06400
H4048       H  0.95699431  0.97110430  0.43773729     0.09800
Br4049     Br  0.97823684  0.91415237  0.39145787    -0.05800
Br4050     Br  0.89870943  0.87622383  0.42398686    -0.02700
Br4051     Br  0.99607593  0.92246385  0.47366721     0.00100
Br4052     Br  0.93522588  0.95159138  0.40846906    -0.04300
C4053       C  0.92328585  0.83750810  0.33911053    -0.11700
C4054       C  0.93647277  0.84622167  0.32657598     0.03800
C4055       C  0.94392205  0.83624478  0.31115092    -0.12200
C4056       C  0.93867188  0.81754081  0.30754092     0.18700
C4057       C  0.92644357  0.80843398  0.32037177    -0.09300
C4058       C  0.91898431  0.81829180  0.33590876    -0.02200
H4059       H  0.95366155  0.84329425  0.30162148     0.05200
C4060       C  0.94613311  0.80789613  0.29032478     0.20600
H4061       H  0.90936749  0.81068404  0.34493193     0.10400
C4062       C  0.95816579  0.79229846  0.29230013    -0.15600
C4063       C  0.96592590  0.78329934  0.27640897     0.03400
C4064       C  0.96190489  0.79000152  0.25804485    -0.10900
C4065       C  0.94998723  0.80567811  0.25605173    -0.00900
C4066       C  0.94196288  0.81448437  0.27193972    -0.06100
H4067       H  0.96177854  0.78727657  0.30630991     0.06400
H4068       H  0.94674625  0.81097856  0.24205282     0.09800
Br4069     Br  0.91845637  0.78281658  0.31665818    -0.05800
Br4070     Br  0.94442364  0.87211186  0.32881668    -0.02700
Br4071     Br  0.98308894  0.76284436  0.28069455     0.00100
Br4072     Br  0.92487977  0.83505370  0.26772960    -0.04300
C4073       C  0.71416976  0.74358471  0.46910476    -0.11700
C4074       C  0.69590141  0.73721582  0.47452379     0.03800
C4075       C  0.68785611  0.72155531  0.46555602    -0.12200
C4076       C  0.69756352  0.71179250  0.45130671     0.18700
C4077       C  0.71574858  0.71790321  0.44597002    -0.09300
C4078       C  0.72388543  0.73357732  0.45485992    -0.02200
H4079       H  0.67378857  0.71700823  0.46964548     0.05200
C4080       C  0.68789434  0.69602688  0.44150331     0.20600
H4081       H  0.73788211  0.73800954  0.45045088     0.10400
C4082       C  0.68331309  0.69798780  0.42237650    -0.15600
C4083       C  0.67274584  0.68425068  0.41293378     0.03400
C4084       C  0.66567681  0.66825864  0.42287097    -0.10900
C4085       C  0.67134465  0.66594896  0.44189367    -0.00900
C4086       C  0.68226457  0.67960497  0.45114360    -0.06100
H4087       H  0.68776431  0.71050836  0.41477212     0.06400
H4088       H  0.66760000  0.65356888  0.44989094     0.09800
Br4089     Br  0.73019039  0.70505888  0.42689381    -0.05800
Br4090     Br  0.68105320  0.74849349  0.49434984    -0.02700
Br4091     Br  0.66839626  0.68883436  0.38648071     0.00100
Br4092     Br  0.68952530  0.67499593  0.47688677    -0.04300
C4093       C  0.78249014  0.74232962  0.53378635    -0.11700
C4094       C  0.80161503  0.73844119  0.52954070     0.03800
C4095       C  0.81041635  0.72266007  0.53748251    -0.12200
C4096       C  0.80051068  0.71056444  0.54969518     0.18700
C4097       C  0.78149889  0.71451355  0.55411148    -0.09300
C4098       C  0.77267110  0.73030371  0.54620962    -0.02200
H4099       H  0.82519627  0.72000140  0.53442047     0.05200
C4100       C  0.81066415  0.69467789  0.55865414     0.20600
H4101       H  0.75798837  0.73307154  0.54961638     0.10400
C4102       C  0.81445476  0.69550378  0.57801594    -0.15600
C4103       C  0.82499183  0.68146162  0.58694399     0.03400
C4104       C  0.83233787  0.66598399  0.57639278    -0.10900
C4105       C  0.82772674  0.66498059  0.55696384    -0.00900
C4106       C  0.81721174  0.67918977  0.54812599    -0.06100
H4107       H  0.80944582  0.70742472  0.58621305     0.06400
H4108       H  0.83211588  0.65330134  0.54827845     0.09800
Br4109     Br  0.76694648  0.69849967  0.57052051    -0.05800
Br4110     Br  0.81687591  0.75492538  0.51426367    -0.02700
Br4111     Br  0.82923989  0.68525222  0.61352387     0.00100
Br4112     Br  0.81191639  0.67675487  0.52161855    -0.04300
C4113       C  0.69366556  0.80786611  0.55533418    -0.11700
C4114       C  0.69751946  0.82090864  0.57001875     0.03800
C4115       C  0.68275159  0.82776852  0.58133030    -0.12200
C4116       C  0.66405007  0.82191841  0.57839546     0.18700
C4117       C  0.66022720  0.80853835  0.56417897    -0.09300
C4118       C  0.67492891  0.80173622  0.55272577    -0.02200
H4119       H  0.68579448  0.83814428  0.59217166     0.05200
C4120       C  0.64868102  0.83053910  0.58979723     0.20600
H4121       H  0.67166878  0.79173573  0.54160064     0.10400
C4122       C  0.63667726  0.84386421  0.58142253    -0.15600
C4123       C  0.62206905  0.85242312  0.59179664     0.03400
C4124       C  0.61919577  0.84761274  0.61100035    -0.10900
C4125       C  0.63156742  0.83446695  0.61936078    -0.00900
C4126       C  0.64611722  0.82596782  0.60897741    -0.06100
H4127       H  0.63864010  0.84754494  0.56666420     0.06400
H4128       H  0.62989682  0.83070116  0.63412884     0.09800
Br4129     Br  0.63515347  0.79907683  0.56004793    -0.05800
Br4130     Br  0.72222600  0.83138595  0.57431430    -0.02700
Br4131     Br  0.60615079  0.86965080  0.57845419     0.00100
Br4132     Br  0.66176399  0.80772025  0.62140906    -0.04300
C4133       C  0.87303389  0.84490306  0.39157287    -0.11700
C4134       C  0.87623307  0.83206382  0.40645765     0.03800
C4135       C  0.86107968  0.82587236  0.41772103    -0.12200
C4136       C  0.84254235  0.83203437  0.41421600     0.18700
C4137       C  0.83937046  0.84469922  0.39914286    -0.09300
C4138       C  0.85457051  0.85114861  0.38811445    -0.02200
H4139       H  0.86380369  0.81641618  0.42943790     0.05200
C4140       C  0.82697733  0.82632548  0.42727086     0.20600
H4141       H  0.85191942  0.86079660  0.37653234     0.10400
C4142       C  0.81816951  0.84020800  0.43823296    -0.15600
C4143       C  0.80361316  0.83576343  0.45092608     0.03400
C4144       C  0.79779991  0.81667585  0.45344915    -0.10900
C4145       C  0.80668492  0.80277589  0.44225959    -0.00900
C4146       C  0.82097731  0.80746482  0.42920718    -0.06100
H4147       H  0.82266014  0.85476570  0.43682829     0.06400
H4148       H  0.80245384  0.78814507  0.44352936     0.09800
Br4149     Br  0.81441824  0.85298130  0.39257919    -0.05800
Br4150     Br  0.90116516  0.82329733  0.41246294    -0.02700
Br4151     Br  0.79267563  0.85705975  0.46376000     0.00100
Br4152     Br  0.83130019  0.78777647  0.41372086    -0.04300
C4153       C  0.78766702  0.84101499  0.54822917    -0.11700
C4154       C  0.80251280  0.85201204  0.54060158     0.03800
C4155       C  0.81502857  0.86140778  0.55270420    -0.12200
C4156       C  0.81323068  0.85981122  0.57238936     0.18700
C4157       C  0.79863260  0.84865074  0.58003905    -0.09300
C4158       C  0.78609127  0.83929305  0.56798986    -0.02200
H4159       H  0.82622013  0.87002924  0.54674796     0.05200
C4160       C  0.82538595  0.87140989  0.58474037     0.20600
H4161       H  0.77486124  0.83083986  0.57411827     0.10400
C4162       C  0.82115010  0.89057020  0.58655529    -0.15600
C4163       C  0.83073268  0.90183063  0.59957652     0.03400
C4164       C  0.84497125  0.89391503  0.61111510    -0.10900
C4165       C  0.85010266  0.87498929  0.60835087    -0.00900
C4166       C  0.84031742  0.86367059  0.59534810    -0.06100
H4167       H  0.80989436  0.89667147  0.57817805     0.06400
H4168       H  0.86112383  0.86876375  0.61689478     0.09800
Br4169     Br  0.79479680  0.84644153  0.60684739    -0.05800
Br4170     Br  0.80726615  0.85376333  0.51393619    -0.02700
Br4171     Br  0.82363175  0.92792263  0.60076828     0.00100
Br4172     Br  0.84732499  0.83766839  0.59290899    -0.04300
C4173       C  0.70458328  0.84674576  0.46708606    -0.11700
C4174       C  0.71255709  0.85936783  0.45379116     0.03800
C4175       C  0.70090795  0.86843680  0.44063049    -0.12200
C4176       C  0.68127282  0.86546557  0.44055078     0.18700
C4177       C  0.67319620  0.85363096  0.45435857    -0.09300
C4178       C  0.68481769  0.84431241  0.46734804    -0.02200
H4179       H  0.70728387  0.87745218  0.42999613     0.05200
C4180       C  0.66974921  0.87392868  0.42522660     0.20600
H4181       H  0.67836340  0.83489412  0.47757353     0.10400
C4182       C  0.66096549  0.86209116  0.41187657    -0.15600
C4183       C  0.65166899  0.86963791  0.39610044     0.03400
C4184       C  0.65131170  0.88925943  0.39340954    -0.10900
C4185       C  0.65939851  0.90110059  0.40711124    -0.00900
C4186       C  0.66850251  0.89361879  0.42295044    -0.06100
H4187       H  0.66185183  0.84691921  0.41343667     0.06400
H4188       H  0.65904223  0.91626097  0.40519728     0.09800
Br4189     Br  0.64636030  0.84995848  0.45613049    -0.05800
Br4190     Br  0.73928766  0.86365531  0.45164479    -0.02700
Br4191     Br  0.64060619  0.85272201  0.37809075     0.00100
Br4192     Br  0.67902602  0.91085012  0.44104190    -0.04300
C4193       C  0.74022207  0.97137912  0.28549213    -0.11700
C4194       C  0.73496033  0.95239508  0.28257586     0.03800
C4195       C  0.71933110  0.94488152  0.29225135    -0.12200
C4196       C  0.70860972  0.95604485  0.30472236     0.18700
C4197       C  0.71387316  0.97503154  0.30753749    -0.09300
C4198       C  0.72958038  0.98244933  0.29806848    -0.02200
H4199       H  0.71572268  0.93015324  0.29030298     0.05200
C4200       C  0.69277037  0.94740569  0.31554687     0.20600
H4201       H  0.73335788  0.99708990  0.30036265     0.10400
C4202       C  0.69362760  0.94721742  0.33530876    -0.15600
C4203       C  0.67910646  0.93938736  0.34621919     0.03400
C4204       C  0.66348856  0.93025629  0.33739432    -0.10900
C4205       C  0.66251957  0.93106941  0.31741373    -0.00900
C4206       C  0.67688053  0.93950320  0.30659690    -0.06100
H4207       H  0.70572779  0.95340631  0.34237079     0.06400
H4208       H  0.65046612  0.92565921  0.30985234     0.09800
Br4209     Br  0.69980169  0.99168585  0.32371459    -0.05800
Br4210     Br  0.74936385  0.93574853  0.26671178    -0.02700
Br4211     Br  0.68211205  0.94205418  0.37311192     0.00100
Br4212     Br  0.67369439  0.94065457  0.27965044    -0.04300
C4213       C  0.73566645  0.03726419  0.22230236    -0.11700
C4214       C  0.72389977  0.04938326  0.23294363     0.03800
C4215       C  0.70734232  0.05662216  0.22488848    -0.12200
C4216       C  0.70233198  0.05225709  0.20617648     0.18700
C4217       C  0.71438752  0.04058544  0.19538455    -0.09300
C4218       C  0.73060193  0.03286510  0.20361761    -0.02200
H4219       H  0.69839541  0.06585275  0.23321568     0.05200
C4220       C  0.68558363  0.06143712  0.19755274     0.20600
H4221       H  0.73968568  0.02390539  0.19514002     0.10400
C4222       C  0.68514993  0.08110065  0.19634463    -0.15600
C4223       C  0.67112808  0.09031032  0.18598965     0.03400
C4224       C  0.65756376  0.07975338  0.17555163    -0.10900
C4225       C  0.65685530  0.06009077  0.17873457    -0.00900
C4226       C  0.67048139  0.05103517  0.18986429    -0.06100
H4227       H  0.69614147  0.08936659  0.20308178     0.06400
H4228       H  0.64601394  0.05138800  0.17256964     0.09800
Br4229     Br  0.71037221  0.03615137  0.16886901    -0.05800
Br4230     Br  0.72931092  0.05601309  0.25871772    -0.02700
Br4231     Br  0.67182907  0.11737654  0.18684398     0.00100
Br4232     Br  0.66772383  0.02449340  0.19448772    -0.04300
C4233       C  0.80792315  0.05611925  0.30601964    -0.11700
C4234       C  0.80364569  0.07560437  0.30628585     0.03800
C4235       C  0.81188240  0.08737905  0.31996050    -0.12200
C4236       C  0.82459185  0.08022136  0.33338447     0.18700
C4237       C  0.82898489  0.06086889  0.33305387    -0.09300
C4238       C  0.82060829  0.04903799  0.31959197    -0.02200
H4239       H  0.80820655  0.10220500  0.32025120     0.05200
C4240       C  0.83232281  0.09291502  0.34822726     0.20600
H4241       H  0.82446546  0.03425537  0.31944859     0.10400
C4242       C  0.82657622  0.09033698  0.36706472    -0.15600
C4243       C  0.83301430  0.10231382  0.38143175     0.03400
C4244       C  0.84539352  0.11735435  0.37708782    -0.10900
C4245       C  0.85142389  0.11973263  0.35829908    -0.00900
C4246       C  0.84498019  0.10769574  0.34390386    -0.06100
H4247       H  0.81693026  0.07897321  0.37059132     0.06400
H4248       H  0.86078118  0.13124787  0.35469119     0.09800
Br4249     Br  0.84701827  0.05009556  0.35017000    -0.05800
Br4250     Br  0.78606417  0.08692357  0.28904164    -0.02700
Br4251     Br  0.82486528  0.09710636  0.40684265     0.00100
Br4252     Br  0.85404844  0.11178033  0.31862522    -0.04300
C4253       C  0.81087715  0.96071769  0.19727622    -0.11700
C4254       C  0.82978227  0.95915250  0.19043291     0.03800
C4255       C  0.83399105  0.94681137  0.17556082    -0.12200
C4256       C  0.81986112  0.93614859  0.16682120     0.18700
C4257       C  0.80104482  0.93806234  0.17297263    -0.09300
C4258       C  0.79669774  0.95012551  0.18812272    -0.02200
H4259       H  0.84846256  0.94563013  0.17061053     0.05200
C4260       C  0.82529270  0.92326995  0.15122385     0.20600
H4261       H  0.78211741  0.95119395  0.19271290     0.10400
C4262       C  0.82962633  0.90439317  0.15527554    -0.15600
C4263       C  0.83665276  0.89239385  0.14113305     0.03400
C4264       C  0.84000001  0.89943606  0.12276946    -0.10900
C4265       C  0.83442358  0.91790414  0.11847483    -0.00900
C4266       C  0.82736312  0.92989932  0.13256611    -0.06100
H4267       H  0.82769840  0.89904474  0.16951186     0.06400
H4268       H  0.83547115  0.92298828  0.10408299     0.09800
Br4269     Br  0.78086089  0.92477217  0.16075338    -0.05800
Br4270     Br  0.85086204  0.97366228  0.19970859    -0.02700
Br4271     Br  0.84086030  0.86640623  0.14736517     0.00100
Br4272     Br  0.82082230  0.95525560  0.12582374    -0.04300
C4273       C  0.88160050  0.89327827  0.34935684    -0.11700
C4274       C  0.88656617  0.91222291  0.35288643     0.03800
C4275       C  0.87788103  0.92670647  0.34263102    -0.12200
C4276       C  0.86399420  0.92268060  0.32905867     0.18700
C4277       C  0.85823613  0.90383383  0.32637810    -0.09300
C4278       C  0.86710718  0.88935727  0.33639529    -0.02200
H4279       H  0.88239851  0.94114853  0.34483313     0.05200
C4280       C  0.85630017  0.93811295  0.31721688     0.20600
H4281       H  0.86303496  0.87486749  0.33367424     0.10400
C4282       C  0.85938861  0.93779189  0.29756249    -0.15600
C4283       C  0.85131342  0.95140611  0.28571425     0.03400
C4284       C  0.84004275  0.96584181  0.29359059    -0.10900
C4285       C  0.83766371  0.96654358  0.31335640    -0.00900
C4286       C  0.84568392  0.95291937  0.32514037    -0.06100
H4287       H  0.86770421  0.92654463  0.29135387     0.06400
H4288       H  0.82908605  0.97753130  0.31967919     0.09800
Br4289     Br  0.83837764  0.89710290  0.30916979    -0.05800
Br4290     Br  0.90607135  0.91919980  0.37027495    -0.02700
Br4291     Br  0.85476893  0.94840478  0.25891738     0.00100
Br4292     Br  0.84067203  0.95454408  0.35180205    -0.04300
C4293       C  0.83889406  0.05059811  0.21394688    -0.11700
C4294       C  0.84007595  0.07018230  0.21712136     0.03800
C4295       C  0.84846990  0.08180436  0.20355366    -0.12200
C4296       C  0.85569389  0.07425477  0.18669761     0.18700
C4297       C  0.85508350  0.05463250  0.18372875    -0.09300
C4298       C  0.84675422  0.04292089  0.19738273    -0.02200
H4299       H  0.84933603  0.09685075  0.20612443     0.05200
C4300       C  0.86444608  0.08727482  0.17294522     0.20600
H4301       H  0.84572411  0.02790322  0.19471306     0.10400
C4302       C  0.88419051  0.08839568  0.17206938    -0.15600
C4303       C  0.89301691  0.10290008  0.16200627     0.03400
C4304       C  0.88198612  0.11654150  0.15259246    -0.10900
C4305       C  0.86227656  0.11466528  0.15236163    -0.00900
C4306       C  0.85344576  0.10018345  0.16256440    -0.06100
H4307       H  0.89273595  0.07844154  0.17991754     0.06400
H4308       H  0.85373091  0.12500341  0.14503159     0.09800
Br4309     Br  0.86453065  0.04344773  0.16088260    -0.05800
Br4310     Br  0.83094866  0.08168235  0.24000040    -0.02700
Br4311     Br  0.92017278  0.10355537  0.16166457     0.00100
Br4312     Br  0.82635586  0.09892315  0.16258514    -0.04300
C4313       C  0.02692965  0.28922823  0.22940974    -0.11700
C4314       C  0.04191685  0.28157109  0.21851314     0.03800
C4315       C  0.04836348  0.29113943  0.20240977    -0.12200
C4316       C  0.04004577  0.30811829  0.19672786     0.18700
C4317       C  0.02423042  0.31498108  0.20661413    -0.09300
C4318       C  0.01786546  0.30562904  0.22284569    -0.02200
H4319       H  0.06070511  0.28593207  0.19495003     0.05200
C4320       C  0.05059605  0.32044684  0.18361227     0.20600
H4321       H  0.00598875  0.31146163  0.23057932     0.10400
C4322       C  0.04856038  0.31889858  0.16395374    -0.15600
C4323       C  0.05908755  0.33050389  0.15166149     0.03400
C4324       C  0.07170295  0.34427830  0.15907178    -0.10900
C4325       C  0.07434191  0.34452788  0.17891836    -0.00900
C4326       C  0.06376671  0.33319977  0.19100053    -0.06100
H4327       H  0.03890922  0.30852733  0.15816757     0.06400
H4328       H  0.08510594  0.35287310  0.18562058     0.09800
Br4329     Br  0.01171909  0.33773836  0.19904290    -0.05800
Br4330     Br  0.05549998  0.25919598  0.22550449    -0.02700
Br4331     Br  0.05621069  0.32600028  0.12501181     0.00100
Br4332     Br  0.06827462  0.33532717  0.21775506    -0.04300
C4333       C  0.96359407  0.22542172  0.23496388    -0.11700
C4334       C  0.96761579  0.20647426  0.23025547     0.03800
C4335       C  0.95904804  0.19820331  0.21449767    -0.12200
C4336       C  0.94659642  0.20847636  0.20306391     0.18700
C4337       C  0.94253252  0.22735736  0.20771474    -0.09300
C4338       C  0.95092229  0.23563186  0.22362059    -0.02200
H4339       H  0.96195636  0.18355493  0.21123497     0.05200
C4340       C  0.93732129  0.19874900  0.18702609     0.20600
H4341       H  0.94785730  0.25024478  0.22688398     0.10400
C4342       C  0.91789421  0.19521164  0.18789562    -0.15600
C4343       C  0.90892417  0.18423755  0.17413388     0.03400
C4344       C  0.91957519  0.17592673  0.15916290    -0.10900
C4345       C  0.93897999  0.18052732  0.15791305    -0.00900
C4346       C  0.94778762  0.19174391  0.17163191    -0.06100
H4347       H  0.90969753  0.20068805  0.19965033     0.06400
H4348       H  0.94766145  0.17559823  0.14640600     0.09800
Br4349     Br  0.92628036  0.24259196  0.19233642    -0.05800
Br4350     Br  0.98379575  0.19073637  0.24528177    -0.02700
Br4351     Br  0.88206465  0.18094245  0.17730242     0.00100
Br4352     Br  0.97418325  0.19738893  0.16864575    -0.04300
C4353       C  0.04598454  0.20546169  0.30363661    -0.11700
C4354       C  0.05951928  0.19784726  0.29091500     0.03800
C4355       C  0.07105294  0.18271903  0.29660775    -0.12200
C4356       C  0.06949902  0.17497567  0.31483750     0.18700
C4357       C  0.05614407  0.18253078  0.32747590    -0.09300
C4358       C  0.04460344  0.19749014  0.32187102    -0.02200
H4359       H  0.08152028  0.17717080  0.28687526     0.05200
C4360       C  0.08247876  0.15972739  0.32102510     0.20600
H4361       H  0.03434810  0.20281330  0.33194484     0.10400
C4362       C  0.09694056  0.16412440  0.33379555    -0.15600
C4363       C  0.10849610  0.15003577  0.34139325     0.03400
C4364       C  0.10606844  0.13103216  0.33588055    -0.10900
C4365       C  0.09180067  0.12669322  0.32273250    -0.00900
C4366       C  0.07989609  0.14080680  0.31551892    -0.06100
H4367       H  0.09896694  0.17862625  0.33821023     0.06400
H4368       H  0.08956431  0.11217848  0.31847551     0.09800
Br4369     Br  0.05297313  0.17265504  0.35258245    -0.05800
Br4370     Br  0.06383270  0.20789202  0.26603752    -0.02700
Br4371     Br  0.12733887  0.15803360  0.35897113     0.00100
Br4372     Br  0.05958246  0.13353837  0.29914273    -0.04300
C4373       C  0.89179195  0.38368840  0.34850120    -0.11700
C4374       C  0.89502364  0.36573368  0.35672160     0.03800
C4375       C  0.90734710  0.35290536  0.34793994    -0.12200
C4376       C  0.91678988  0.35751073  0.33111730     0.18700
C4377       C  0.91419932  0.37548621  0.32323094    -0.09300
C4378       C  0.90201767  0.38837243  0.33196443    -0.02200
H4379       H  0.90935574  0.33906720  0.35411678     0.05200
C4380       C  0.92877288  0.34316594  0.32166022     0.20600
H4381       H  0.90034007  0.40211939  0.32551906     0.10400
C4382       C  0.92016421  0.32880256  0.31109180    -0.15600
C4383       C  0.93097971  0.31485617  0.30206727     0.03400
C4384       C  0.95096352  0.31513304  0.30353486    -0.10900
C4385       C  0.95946731  0.32981764  0.31396966    -0.00900
C4386       C  0.94858624  0.34361287  0.32306520    -0.06100
H4387       H  0.90489761  0.32845553  0.30985691     0.06400
H4388       H  0.97468402  0.33027595  0.31563592     0.09800
Br4389     Br  0.92635598  0.38273425  0.30003910    -0.05800
Br4390     Br  0.88264409  0.35685043  0.37909433    -0.02700
Br4391     Br  0.91740854  0.29631036  0.28764477     0.00100
Br4392     Br  0.96131374  0.36236080  0.33794039    -0.04300
C4393       C  0.95470399  0.22249973  0.33534688    -0.11700
C4394       C  0.96199350  0.20894499  0.34805301     0.03800
C4395       C  0.94959756  0.19696057  0.35781176    -0.12200
C4396       C  0.93002247  0.19804376  0.35498322     0.18700
C4397       C  0.92271079  0.21162122  0.34252186    -0.09300
C4398       C  0.93500682  0.22362052  0.33279794    -0.02200
H4399       H  0.95525037  0.18660060  0.36753495     0.05200
C4400       C  0.91731575  0.18581660  0.36611482     0.20600
H4401       H  0.92908481  0.23395362  0.32320752     0.10400
C4402       C  0.91445994  0.19007931  0.38519464    -0.15600
C4403       C  0.90154011  0.17984719  0.39604426     0.03400
C4404       C  0.89083869  0.16515627  0.38767283    -0.10900
C4405       C  0.89462070  0.16018957  0.36880493    -0.00900
C4406       C  0.90776208  0.17038707  0.35801114    -0.06100
H4407       H  0.92225342  0.20156826  0.39164968     0.06400
H4408       H  0.88704880  0.14867566  0.36227118     0.09800
Br4409     Br  0.89600988  0.21465017  0.33874283    -0.05800
Br4410     Br  0.98859627  0.20510104  0.35184012    -0.02700
Br4411     Br  0.90049450  0.18594572  0.42244286     0.00100
Br4412     Br  0.91228411  0.16283064  0.33233849    -0.04300
C4413       C  0.04038347  0.30043792  0.33399441    -0.11700
C4414       C  0.05433746  0.29225687  0.34563153     0.03800
C4415       C  0.06677684  0.30384067  0.35575566    -0.12200
C4416       C  0.06547649  0.32357515  0.35474550     0.18700
C4417       C  0.05147711  0.33174988  0.34326443    -0.09300
C4418       C  0.03918965  0.32020703  0.33293275    -0.02200
H4419       H  0.07770644  0.29741765  0.36431331     0.05200
C4420       C  0.07929008  0.33526948  0.36529039     0.20600
H4421       H  0.02849552  0.32673274  0.32415760     0.10400
C4422       C  0.09258333  0.34609325  0.35523690    -0.15600
C4423       C  0.10695506  0.35588221  0.36469911     0.03400
C4424       C  0.10821425  0.35486347  0.38456625    -0.10900
C4425       C  0.09453621  0.34454178  0.39463357    -0.00900
C4426       C  0.08016149  0.33481159  0.38519194    -0.06100
H4427       H  0.09216162  0.34638551  0.33991213     0.06400
H4428       H  0.09535074  0.34365731  0.40992062     0.09800
Br4429     Br  0.04819076  0.35856496  0.34173967    -0.05800
Br4430     Br  0.05800076  0.26547455  0.34729717    -0.02700
Br4431     Br  0.12536397  0.36892089  0.34966865     0.00100
Br4432     Br  0.06215828  0.32094747  0.40006895    -0.04300
C4433       C  0.76420064  0.53911980  0.21875235    -0.11700
C4434       C  0.78271863  0.53855498  0.22613064     0.03800
C4435       C  0.79775050  0.54608957  0.21562755    -0.12200
C4436       C  0.79466651  0.55443782  0.19789215     0.18700
C4437       C  0.77613374  0.55521400  0.19065097    -0.09300
C4438       C  0.76116480  0.54745528  0.20099690    -0.02200
H4439       H  0.81197392  0.54526410  0.22122750     0.05200
C4440       C  0.81092566  0.56215799  0.18711713     0.20600
H4441       H  0.74701240  0.54806331  0.19518407     0.10400
C4442       C  0.81547705  0.55454843  0.16940354    -0.15600
C4443       C  0.82974801  0.56245369  0.15814608     0.03400
C4444       C  0.84084873  0.57773303  0.16506981    -0.10900
C4445       C  0.83618033  0.58502343  0.18312385    -0.00900
C4446       C  0.82140348  0.57753618  0.19393619    -0.06100
H4447       H  0.80725117  0.54286153  0.16392035     0.06400
H4448       H  0.84289323  0.59748219  0.18866129     0.09800
Br4449     Br  0.77035977  0.56727451  0.16703581    -0.05800
Br4450     Br  0.78858449  0.52650660  0.24973094    -0.02700
Br4451     Br  0.83154732  0.55268740  0.13279200     0.00100
Br4452     Br  0.81482730  0.59015312  0.21709076    -0.04300
C4453       C  0.76581306  0.47570147  0.28770625    -0.11700
C4454       C  0.76927078  0.47941981  0.30700783     0.03800
C4455       C  0.78530544  0.47188937  0.31571540    -0.12200
C4456       C  0.79818532  0.46083896  0.30544393     0.18700
C4457       C  0.79485690  0.45733686  0.28611610    -0.09300
C4458       C  0.77869462  0.46462855  0.27745725    -0.02200
H4459       H  0.78751726  0.47429079  0.33069445     0.05200
C4460       C  0.81393275  0.45164465  0.31558933     0.20600
H4461       H  0.77632738  0.46188144  0.26256362     0.10400
C4462       C  0.81401045  0.43198804  0.31697206    -0.15600
C4463       C  0.82752498  0.42262512  0.32778737     0.03400
C4464       C  0.84126307  0.43302728  0.33814703    -0.10900
C4465       C  0.84162496  0.45282082  0.33581756    -0.00900
C4466       C  0.82812181  0.46207345  0.32476053    -0.06100
H4467       H  0.80313547  0.42384577  0.30990183     0.06400
H4468       H  0.85205636  0.46152189  0.34262973     0.09800
Br4469     Br  0.81223667  0.44312197  0.27086609    -0.05800
Br4470     Br  0.75194324  0.49348101  0.32249379    -0.02700
Br4471     Br  0.82551094  0.39553153  0.32822683     0.00100
Br4472     Br  0.82970440  0.48901093  0.32251320    -0.04300
C4473       C  0.66171673  0.40055951  0.12157895    -0.11700
C4474       C  0.65709282  0.41975889  0.12423943     0.03800
C4475       C  0.66521836  0.42992926  0.13922457    -0.12200
C4476       C  0.67791611  0.42129385  0.15176070     0.18700
C4477       C  0.68235590  0.40213796  0.14924965    -0.09300
C4478       C  0.67437070  0.39200447  0.13426526    -0.02200
H4479       H  0.66172504  0.44469388  0.14104452     0.05200
C4480       C  0.68622378  0.43235968  0.16752588     0.20600
H4481       H  0.67807475  0.37728532  0.13250802     0.10400
C4482       C  0.67970228  0.42932087  0.18603012    -0.15600
C4483       C  0.68679068  0.43985548  0.20123455     0.03400
C4484       C  0.70065143  0.45391498  0.19802613    -0.10900
C4485       C  0.70737897  0.45668402  0.17947796    -0.00900
C4486       C  0.70042963  0.44593567  0.16434848    -0.06100
H4487       H  0.66876249  0.41890684  0.18859645     0.06400
H4488       H  0.71798504  0.46738357  0.17670772     0.09800
Br4489     Br  0.69971773  0.38939178  0.16564118    -0.05800
Br4490     Br  0.64088615  0.43324996  0.10730773    -0.02700
Br4491     Br  0.67569096  0.43541216  0.22567668     0.00100
Br4492     Br  0.71092647  0.45003093  0.13962955    -0.04300
C4493       C  0.69147098  0.55535827  0.30236861    -0.11700
C4494       C  0.70366153  0.56259296  0.31654568     0.03800
C4495       C  0.69677688  0.57564497  0.32987944    -0.12200
C4496       C  0.67785526  0.58157221  0.32957968     0.18700
C4497       C  0.66575603  0.57449528  0.31554665    -0.09300
C4498       C  0.67256062  0.56166735  0.30213727    -0.02200
H4499       H  0.70612300  0.58088319  0.34081832     0.05200
C4500       C  0.67059452  0.59449313  0.34442219     0.20600
H4501       H  0.66282216  0.55647530  0.29153084     0.10400
C4502       C  0.67037716  0.61401188  0.34115269    -0.15600
C4503       C  0.66291275  0.62643467  0.35470140     0.03400
C4504       C  0.65542262  0.61935791  0.37180481    -0.10900
C4505       C  0.65524346  0.59981516  0.37482165    -0.00900
C4506       C  0.66290909  0.58742277  0.36140232    -0.06100
H4507       H  0.67589534  0.61956890  0.32796561     0.06400
H4508       H  0.64945675  0.59418753  0.38782251     0.09800
Br4509     Br  0.63958804  0.58154688  0.31456149    -0.05800
Br4510     Br  0.72937429  0.55446644  0.31950141    -0.02700
Br4511     Br  0.66239277  0.65281381  0.34883818     0.00100
Br4512     Br  0.66271146  0.56092662  0.36682623    -0.04300
C4513       C  0.66251001  0.54054382  0.20923990    -0.11700
C4514       C  0.66284531  0.53846153  0.18935923     0.03800
C4515       C  0.65408352  0.55189169  0.17792440    -0.12200
C4516       C  0.64498461  0.56745854  0.18598611     0.18700
C4517       C  0.64405100  0.56921915  0.20583385    -0.09300
C4518       C  0.65271821  0.55573358  0.21731025    -0.02200
H4519       H  0.65442728  0.55024949  0.16267991     0.05200
C4520       C  0.63596155  0.58142479  0.17353844     0.20600
H4521       H  0.65256936  0.55760785  0.23253171     0.10400
C4522       C  0.61622222  0.58203742  0.17290745    -0.15600
C4523       C  0.60701894  0.59615437  0.16283053     0.03400
C4524       C  0.61766054  0.60983555  0.15289201    -0.10900
C4525       C  0.63742037  0.60857001  0.15256298    -0.00900
C4526       C  0.64664908  0.59448631  0.16291258    -0.06100
H4527       H  0.60795590  0.57184986  0.18083651     0.06400
H4528       H  0.64567258  0.61918995  0.14521940     0.09800
Br4529     Br  0.63205994  0.59035459  0.21784495    -0.05800
Br4530     Br  0.67461755  0.51732091  0.17707067    -0.02700
Br4531     Br  0.57984130  0.59641762  0.16363043     0.00100
Br4532     Br  0.67376438  0.59455825  0.16344545    -0.04300
C4533       C  0.61741400  0.39164714  0.34710373    -0.11700
C4534       C  0.61484248  0.41092477  0.35132634     0.03800
C4535       C  0.62452399  0.42464970  0.34080646    -0.12200
C4536       C  0.63668423  0.41946616  0.32600466     0.18700
C4537       C  0.63963263  0.40026460  0.32207738    -0.09300
C4538       C  0.63010508  0.38657724  0.33262216    -0.02200
H4539       H  0.62226028  0.43944403  0.34389877     0.05200
C4540       C  0.64634440  0.43415089  0.31477309     0.20600
H4541       H  0.63219924  0.37184271  0.32912840     0.10400
C4542       C  0.66558400  0.43742852  0.31791537    -0.15600
C4543       C  0.67567391  0.45012815  0.30666174     0.03400
C4544       C  0.66644518  0.45983725  0.29183845    -0.10900
C4545       C  0.64695760  0.45705992  0.28917980    -0.00900
C4546       C  0.63691202  0.44422304  0.30046338    -0.06100
H4547       H  0.67283931  0.42985537  0.32905618     0.06400
H4548       H  0.63967254  0.46437631  0.27789426     0.09800
Br4549     Br  0.65571612  0.39212595  0.30173589    -0.05800
Br4550     Br  0.59725625  0.41953919  0.37003262    -0.02700
Br4551     Br  0.70186954  0.45400288  0.31281224     0.00100
Br4552     Br  0.61062624  0.44008735  0.29523875    -0.04300
C4553       C  0.28057147  0.26836805  0.52626789    -0.11700
C4554       C  0.29767230  0.27579565  0.51878014     0.03800
C4555       C  0.30565167  0.29199469  0.52672635    -0.12200
C4556       C  0.29693187  0.30122606  0.54188582     0.18700
C4557       C  0.27957225  0.29450136  0.54885061    -0.09300
C4558       C  0.27152599  0.27822537  0.54105552    -0.02200
H4559       H  0.31906826  0.29716672  0.52137378     0.05200
C4560       C  0.30766039  0.31597398  0.55189055     0.20600
H4561       H  0.25831160  0.27308117  0.54688719     0.10400
C4562       C  0.30669081  0.33487397  0.54620862    -0.15600
C4563       C  0.31827188  0.34860145  0.55467587     0.03400
C4564       C  0.33181430  0.34325475  0.56847175    -0.10900
C4565       C  0.33098271  0.32449562  0.57526311    -0.00900
C4566       C  0.31956025  0.31094100  0.56683178    -0.06100
H4567       H  0.29689825  0.33894165  0.53518009     0.06400
H4568       H  0.33887445  0.31999924  0.58747927     0.09800
Br4569     Br  0.26680995  0.30677927  0.56941576    -0.05800
Br4570     Br  0.31096371  0.26518375  0.49752552    -0.02700
Br4571     Br  0.31385361  0.37431290  0.54753822     0.00100
Br4572     Br  0.32100509  0.28548049  0.57602819    -0.04300
C4573       C  0.16559046  0.34618716  0.42530743    -0.11700
C4574       C  0.17321170  0.33060981  0.41512001     0.03800
C4575       C  0.18392825  0.31697180  0.42442329    -0.12200
C4576       C  0.18783511  0.31848463  0.44370925     0.18700
C4577       C  0.18171345  0.33449729  0.45367573    -0.09300
C4578       C  0.17070965  0.34813352  0.44453967    -0.02200
H4579       H  0.18899344  0.30483327  0.41658938     0.05200
C4580       C  0.19774342  0.30272403  0.45304533     0.20600
H4581       H  0.16655488  0.36026903  0.45271812     0.10400
C4582       C  0.21680465  0.29933852  0.44873325    -0.15600
C4583       C  0.22599354  0.28327677  0.45562014     0.03400
C4584       C  0.21596109  0.27021148  0.46692740    -0.10900
C4585       C  0.19703067  0.27394513  0.47162884    -0.00900
C4586       C  0.18785190  0.28991528  0.46463673    -0.06100
H4587       H  0.22448410  0.30913653  0.43979050     0.06400
H4588       H  0.18913573  0.26406102  0.48028358     0.09800
Br4589     Br  0.18838197  0.33844954  0.47968337    -0.05800
Br4590     Br  0.16949896  0.32638072  0.38849766    -0.02700
Br4591     Br  0.25237905  0.28042750  0.44981810     0.00100
Br4592     Br  0.16144978  0.29292700  0.47020198    -0.04300
C4593       C  0.30107903  0.20223715  0.44188768    -0.11700
C4594       C  0.29865285  0.18640780  0.42996472     0.03800
C4595       C  0.31374413  0.17997830  0.41876828    -0.12200
C4596       C  0.33141357  0.18899573  0.41921445     0.18700
C4597       C  0.33367880  0.20513827  0.43062828    -0.09300
C4598       C  0.31868209  0.21147244  0.44199602    -0.02200
H4599       H  0.31183970  0.16755975  0.41003373     0.05200
C4600       C  0.34730554  0.18120490  0.40783067     0.20600
H4601       H  0.32081011  0.22362298  0.45105195     0.10400
C4602       C  0.34737549  0.18370635  0.38816212    -0.15600
C4603       C  0.36203378  0.17644692  0.37693960     0.03400
C4604       C  0.37711965  0.16643518  0.38539547    -0.10900
C4605       C  0.37673173  0.16348389  0.40503905    -0.00900
C4606       C  0.36203705  0.17079523  0.41624437    -0.06100
H4607       H  0.33589315  0.19128547  0.38148979     0.06400
H4608       H  0.38801695  0.15567340  0.41173995     0.09800
Br4609     Br  0.35695553  0.21904893  0.43097358    -0.05800
Br4610     Br  0.27568121  0.17192095  0.42970673    -0.02700
Br4611     Br  0.35985781  0.17953274  0.35002336     0.00100
Br4612     Br  0.36241361  0.16591252  0.44293909    -0.04300
C4613       C  0.19861279  0.19280022  0.54475751    -0.11700
C4614       C  0.19405749  0.20342484  0.56111000     0.03800
C4615       C  0.17989474  0.19704833  0.57356822    -0.12200
C4616       C  0.17017670  0.18009902  0.57020620     0.18700
C4617       C  0.17463035  0.16953869  0.55394872    -0.09300
C4618       C  0.18872638  0.17583654  0.54151272    -0.02200
H4619       H  0.17658527  0.20525053  0.58608180     0.05200
C4620       C  0.15518600  0.17377223  0.58354919     0.20600
H4621       H  0.19176393  0.16748472  0.52903145     0.10400
C4622       C  0.13747967  0.18262929  0.58318646    -0.15600
C4623       C  0.12273221  0.17656279  0.59501789     0.03400
C4624       C  0.12563247  0.16140489  0.60768586    -0.10900
C4625       C  0.14335861  0.15252107  0.60796393    -0.00900
C4626       C  0.15809696  0.15865241  0.59614995    -0.06100
H4627       H  0.13500921  0.19408276  0.57335613     0.06400
H4628       H  0.14585275  0.14093585  0.61762933     0.09800
Br4629     Br  0.16141169  0.14666612  0.54786093    -0.05800
Br4630     Br  0.20730807  0.22606906  0.56792446    -0.02700
Br4631     Br  0.09859120  0.18856522  0.59209502     0.00100
Br4632     Br  0.18209891  0.14624123  0.59796620    -0.04300
C4633       C  0.34581242  0.12550233  0.60308978    -0.11700
C4634       C  0.33233274  0.14004902  0.60452397     0.03800
C4635       C  0.32382220  0.14706296  0.58824071    -0.12200
C4636       C  0.32836848  0.13971707  0.57039879     0.18700
C4637       C  0.34291687  0.12625742  0.56876331    -0.09300
C4638       C  0.35156808  0.11922704  0.58514056    -0.02200
H4639       H  0.31304903  0.15784469  0.58954323     0.05200
C4640       C  0.31699236  0.14595868  0.55407865     0.20600
H4641       H  0.36195935  0.10807282  0.58392316     0.10400
C4642       C  0.32503356  0.15803347  0.54061339    -0.15600
C4643       C  0.31369885  0.16703809  0.52718772     0.03400
C4644       C  0.29387050  0.16422097  0.52737594    -0.10900
C4645       C  0.28612130  0.15092367  0.53989349    -0.00900
C4646       C  0.29751111  0.14183568  0.55319266    -0.06100
H4647       H  0.34005171  0.16105061  0.54103146     0.06400
H4648       H  0.27101453  0.14836133  0.54008008     0.09800
Br4649     Br  0.35035994  0.11612770  0.54471862    -0.05800
Br4650     Br  0.32470030  0.15055562  0.62841659    -0.02700
Br4651     Br  0.32619115  0.18293209  0.50898947     0.00100
Br4652     Br  0.28573033  0.12448956  0.57045432    -0.04300
C4653       C  0.14951592  0.12317141  0.38362223    -0.11700
C4654       C  0.16528089  0.13457339  0.37877339     0.03800
C4655       C  0.17528939  0.14401335  0.39290190    -0.12200
C4656       C  0.17009826  0.14221214  0.41192335     0.18700
C4657       C  0.15414544  0.13140434  0.41680018    -0.09300
C4658       C  0.14392645  0.12207669  0.40265530    -0.02200
H4659       H  0.18747273  0.15250125  0.38908312     0.05200
C4660       C  0.18209383  0.15114120  0.42641010     0.20600
H4661       H  0.13224269  0.11321764  0.40673647     0.10400
C4662       C  0.17687371  0.16866048  0.43390886    -0.15600
C4663       C  0.18885554  0.17820352  0.44639286     0.03400
C4664       C  0.20637493  0.17015567  0.45148028    -0.10900
C4665       C  0.21119994  0.15227033  0.44455191    -0.00900
C4666       C  0.19925675  0.14281243  0.43197228    -0.06100
H4667       H  0.16359509  0.17504405  0.42979134     0.06400
H4668       H  0.22459512  0.14595307  0.44838255     0.09800
Br4669     Br  0.14664508  0.12806315  0.44268108    -0.05800
Br4670     Br  0.17385282  0.13814651  0.35314076    -0.02700
Br4671     Br  0.18036814  0.20187088  0.45653914     0.00100
Br4672     Br  0.20707438  0.11874830  0.42235331    -0.04300
C4673       C  0.47000951  0.22773782  0.26215648    -0.11700
C4674       C  0.48140879  0.21478961  0.27217933     0.03800
C4675       C  0.47411905  0.20532628  0.28797385    -0.12200
C4676       C  0.45553387  0.20845808  0.29409518     0.18700
C4677       C  0.44438914  0.22193272  0.28466908    -0.09300
C4678       C  0.45170236  0.23157116  0.26891741    -0.02200
H4679       H  0.48280514  0.19503010  0.29519916     0.05200
C4680       C  0.44732283  0.19589104  0.30870547     0.20600
H4681       H  0.44280314  0.24154204  0.26150567     0.10400
C4682       C  0.44566779  0.20180566  0.32757372    -0.15600
C4683       C  0.43734724  0.19005386  0.34131973     0.03400
C4684       C  0.42960975  0.17229456  0.33605999    -0.10900
C4685       C  0.43315515  0.16599530  0.31738563    -0.00900
C4686       C  0.44155322  0.17760880  0.30384834    -0.06100
H4687       H  0.45099615  0.21555039  0.33164105     0.06400
H4688       H  0.42995511  0.15182374  0.31294817     0.09800
Br4689     Br  0.41875531  0.22669244  0.29218172    -0.05800
Br4690     Br  0.50722992  0.20978001  0.26535740    -0.02700
Br4691     Br  0.43800610  0.19880705  0.36705030     0.00100
Br4692     Br  0.44465357  0.16783486  0.27866810    -0.04300
C4693       C  0.57327358  0.33744391  0.34029802    -0.11700
C4694       C  0.55955478  0.34634233  0.32856569     0.03800
C4695       C  0.55081125  0.33631253  0.31400243    -0.12200
C4696       C  0.55540858  0.31751694  0.31048091     0.18700
C4697       C  0.56843120  0.30832052  0.32220982    -0.09300
C4698       C  0.57710290  0.31815171  0.33703509    -0.02200
H4699       H  0.54080291  0.34343741  0.30488389     0.05200
C4700       C  0.54746730  0.30829020  0.29359041     0.20600
H4701       H  0.58730523  0.31053858  0.34530914     0.10400
C4702       C  0.55760835  0.30914426  0.27653996    -0.15600
C4703       C  0.55015681  0.30143091  0.25993471     0.03400
C4704       C  0.53225349  0.29265033  0.26032333    -0.10900
C4705       C  0.52205728  0.29200260  0.27741241    -0.00900
C4706       C  0.52954845  0.29971786  0.29398673    -0.06100
H4707       H  0.57124409  0.31612733  0.27611107     0.06400
H4708       H  0.50829590  0.28527254  0.27792342     0.09800
Br4709     Br  0.57530220  0.28250135  0.31792353    -0.05800
Br4710     Br  0.55275577  0.37258050  0.33039960    -0.02700
Br4711     Br  0.56436991  0.30456627  0.23695574     0.00100
Br4712     Br  0.51492973  0.29823891  0.31683662    -0.04300
C4713       C  0.54883532  0.20420206  0.19272946    -0.11700
C4714       C  0.54186370  0.18829554  0.18269828     0.03800
C4715       C  0.55427739  0.17410960  0.17683002    -0.12200
C4716       C  0.57367439  0.17524912  0.18055552     0.18700
C4717       C  0.58076166  0.19114493  0.19020390    -0.09300
C4718       C  0.56839261  0.20539451  0.19620029    -0.02200
H4719       H  0.54877280  0.16212454  0.16906131     0.05200
C4720       C  0.58616643  0.15977485  0.17395451     0.20600
H4721       H  0.57413146  0.21743396  0.20369281     0.10400
C4722       C  0.59967179  0.16333145  0.15980629    -0.15600
C4723       C  0.61156582  0.14897054  0.15316234     0.03400
C4724       C  0.60988656  0.13054590  0.16054769    -0.10900
C4725       C  0.59619023  0.12700106  0.17455119    -0.00900
C4726       C  0.58439618  0.14136165  0.18123928    -0.06100
H4727       H  0.60110337  0.17742707  0.15405577     0.06400
H4728       H  0.59480214  0.11298417  0.18049929     0.09800
Br4729     Br  0.60713384  0.19382354  0.19594250    -0.05800
Br4730     Br  0.51589106  0.18520703  0.17521766    -0.02700
Br4731     Br  0.63070822  0.15586198  0.13520065     0.00100
Br4732     Br  0.56667568  0.13527547  0.20094391    -0.04300
C4733       C  0.38784482  0.38162629  0.15599236    -0.11700
C4734       C  0.38095620  0.36575241  0.16589148     0.03800
C4735       C  0.39349294  0.35183060  0.17211102    -0.12200
C4736       C  0.41296296  0.35346000  0.16872379     0.18700
C4737       C  0.41981693  0.36904066  0.15836411    -0.09300
C4738       C  0.40725081  0.38295877  0.15203431    -0.02200
H4739       H  0.38804293  0.33969295  0.17968762     0.05200
C4740       C  0.42575192  0.33841195  0.17557544     0.20600
H4741       H  0.41267859  0.39503185  0.14433653     0.10400
C4742       C  0.42614268  0.32111409  0.16600599    -0.15600
C4743       C  0.43827234  0.30664499  0.17177001     0.03400
C4744       C  0.45032457  0.30933695  0.18749700    -0.10900
C4745       C  0.44933603  0.32641849  0.19753605    -0.00900
C4746       C  0.43722106  0.34091514  0.19166161    -0.06100
H4747       H  0.41704008  0.31891426  0.15388800     0.06400
H4748       H  0.45840186  0.32871739  0.20965799     0.09800
Br4749     Br  0.44616503  0.37170303  0.15240492    -0.05800
Br4750     Br  0.35445557  0.36204767  0.17057552    -0.02700
Br4751     Br  0.43710285  0.28326251  0.15804349     0.00100
Br4752     Br  0.43674845  0.36388685  0.20599158    -0.04300
C4753       C  0.54624889  0.29752461  0.15850528    -0.11700
C4754       C  0.53962006  0.31250160  0.14710713     0.03800
C4755       C  0.55258177  0.32442232  0.13789271    -0.12200
C4756       C  0.57215311  0.32164344  0.13969615     0.18700
C4757       C  0.57873780  0.30657018  0.15080995    -0.09300
C4758       C  0.56587381  0.29480119  0.16013509    -0.02200
H4759       H  0.54738554  0.33601345  0.12939082     0.05200
C4760       C  0.58564300  0.33422341  0.12967719     0.20600
H4761       H  0.57129031  0.28336474  0.16871316     0.10400
C4762       C  0.59735135  0.34641200  0.14012012    -0.15600
C4763       C  0.61157157  0.35703051  0.13119895     0.03400
C4764       C  0.61446761  0.35523346  0.11154292    -0.10900
C4765       C  0.60249337  0.34326746  0.10113422    -0.00900
C4766       C  0.58792943  0.33319251  0.10992805    -0.06100
H4767       H  0.59569080  0.34731429  0.15534020     0.06400
H4768       H  0.60436814  0.34193118  0.08596574     0.09800
Br4769     Br  0.60520712  0.30113083  0.15327101    -0.05800
Br4770     Br  0.51323107  0.31822429  0.14455375    -0.02700
Br4771     Br  0.62747660  0.37249314  0.14672716     0.00100
Br4772     Br  0.57189440  0.31782010  0.09439248    -0.04300
C4773       C  0.39146762  0.16368095  0.11203400    -0.11700
C4774       C  0.40222971  0.17739143  0.10214998     0.03800
C4775       C  0.41700432  0.18676571  0.11128248    -0.12200
C4776       C  0.42187247  0.18226931  0.12993021     0.18700
C4777       C  0.41244051  0.16731736  0.13910706    -0.09300
C4778       C  0.39750425  0.15804583  0.13005214    -0.02200
H4779       H  0.42452192  0.19788720  0.10389780     0.05200
C4780       C  0.43566269  0.19433087  0.13999036     0.20600
H4781       H  0.39027860  0.14678683  0.13739569     0.10400
C4782       C  0.42933261  0.20496885  0.15548610    -0.15600
C4783       C  0.44162320  0.21693980  0.16518093     0.03400
C4784       C  0.46050818  0.21880137  0.15911516    -0.10900
C4785       C  0.46683389  0.20851328  0.14338476    -0.00900
C4786       C  0.45458974  0.19617065  0.13390148    -0.06100
H4787       H  0.41473458  0.20392267  0.16007430     0.06400
H4788       H  0.48146359  0.20956772  0.13891083     0.09800
Br4789     Br  0.41936562  0.15916593  0.16403279    -0.05800
Br4790     Br  0.39849734  0.18315180  0.07583349    -0.02700
Br4791     Br  0.43188759  0.23072872  0.18647926     0.00100
Br4792     Br  0.46459178  0.18129754  0.11353133    -0.04300
C4793       C  0.34239891  0.58059404  0.32946682    -0.11700
C4794       C  0.33244031  0.56497272  0.33738415     0.03800
C4795       C  0.31769452  0.55639130  0.32739423    -0.12200
C4796       C  0.31208665  0.56311713  0.30968805     0.18700
C4797       C  0.32189631  0.57833102  0.30156659    -0.09300
C4798       C  0.33690570  0.58677062  0.31126841    -0.02200
H4799       H  0.30999236  0.54482571  0.33384804     0.05200
C4800       C  0.29525124  0.55480979  0.30046251     0.20600
H4801       H  0.34328016  0.59887895  0.30464961     0.10400
C4802       C  0.27866714  0.56556005  0.29905379    -0.15600
C4803       C  0.26244161  0.55817789  0.29047845     0.03400
C4804       C  0.26264720  0.53964225  0.28317485    -0.10900
C4805       C  0.27913498  0.52876278  0.28502676    -0.00900
C4806       C  0.29536042  0.53620953  0.29352109    -0.06100
H4807       H  0.27833046  0.57973684  0.30477745     0.06400
H4808       H  0.27953079  0.51451019  0.27950097     0.09800
Br4809     Br  0.31487812  0.58854063  0.27742495    -0.05800
Br4810     Br  0.33666428  0.55542287  0.36251499    -0.02700
Br4811     Br  0.24014551  0.57362268  0.29027339     0.00100
Br4812     Br  0.31754037  0.52071323  0.29472403    -0.04300
C4813       C  0.26002055  0.47229406  0.21760104    -0.11700
C4814       C  0.25832143  0.46177891  0.20073742     0.03800
C4815       C  0.27449666  0.45440733  0.19206564    -0.12200
C4816       C  0.29251226  0.45757355  0.19973282     0.18700
C4817       C  0.29426798  0.46839540  0.21633828    -0.09300
C4818       C  0.27805925  0.47535775  0.22531949    -0.02200
H4819       H  0.27303846  0.44621033  0.17920249     0.05200
C4820       C  0.30923031  0.45002323  0.18966798     0.20600
H4821       H  0.27961242  0.48383156  0.23798886     0.10400
C4822       C  0.31323031  0.45667328  0.17148862    -0.15600
C4823       C  0.32755503  0.44863074  0.16052272     0.03400
C4824       C  0.33895777  0.43385639  0.16799104    -0.10900
C4825       C  0.33504375  0.42763735  0.18659146    -0.00900
C4826       C  0.32017772  0.43531320  0.19719225    -0.06100
H4827       H  0.30452940  0.46769673  0.16544544     0.06400
H4828       H  0.34240890  0.41584571  0.19270309     0.09800
Br4829     Br  0.31851727  0.47514837  0.22644716    -0.05800
Br4830     Br  0.23429674  0.45652887  0.18923297    -0.02700
Br4831     Br  0.32891143  0.45737425  0.13473959     0.00100
Br4832     Br  0.31398846  0.42373932  0.22098396    -0.04300
C4833       C  0.19653492  0.55568806  0.19181261    -0.11700
C4834       C  0.19217187  0.54883381  0.17342554     0.03800
C4835       C  0.18433951  0.56093292  0.15987636    -0.12200
C4836       C  0.18118530  0.58008224  0.16372893     0.18700
C4837       C  0.18583591  0.58705625  0.18184004    -0.09300
C4838       C  0.19333333  0.57494215  0.19558382    -0.02200
H4839       H  0.18066720  0.55530261  0.14610765     0.05200
C4840       C  0.17305561  0.59240027  0.14866867     0.20600
H4841       H  0.19642413  0.58067998  0.20944311     0.10400
C4842       C  0.15620757  0.60234530  0.15210487    -0.15600
C4843       C  0.14852972  0.61453897  0.13849644     0.03400
C4844       C  0.15730877  0.61640079  0.12058981    -0.10900
C4845       C  0.17380670  0.60589856  0.11699159    -0.00900
C4846       C  0.18180748  0.59426233  0.13079840    -0.06100
H4847       H  0.14917810  0.60093921  0.16567111     0.06400
H4848       H  0.18076680  0.60693860  0.10335594     0.09800
Br4849     Br  0.18269355  0.61310351  0.18858244    -0.05800
Br4850     Br  0.19650323  0.52331889  0.16523100    -0.02700
Br4851     Br  0.12720301  0.62938687  0.14616483     0.00100
Br4852     Br  0.20535250  0.58220032  0.12470086    -0.04300
C4853       C  0.18798266  0.46213498  0.30370266    -0.11700
C4854       C  0.16874884  0.45873921  0.30870595     0.03800
C4855       C  0.16427924  0.44655170  0.32363943    -0.12200
C4856       C  0.17835692  0.43761729  0.33422619     0.18700
C4857       C  0.19745256  0.44082381  0.32936657    -0.09300
C4858       C  0.20208492  0.45291574  0.31429203    -0.02200
H4859       H  0.14954538  0.44390044  0.32697813     0.05200
C4860       C  0.17254653  0.42431259  0.34952201     0.20600
H4861       H  0.21687135  0.45520791  0.31098492     0.10400
C4862       C  0.17742130  0.40520508  0.34800429    -0.15600
C4863       C  0.17098893  0.39193899  0.36123026     0.03400
C4864       C  0.15891837  0.39758647  0.37618501    -0.10900
C4865       C  0.15406219  0.41671305  0.37772917    -0.00900
C4866       C  0.16091509  0.43005139  0.36474699    -0.06100
H4867       H  0.18600649  0.40049379  0.33619914     0.06400
H4868       H  0.14514568  0.42137515  0.38931078     0.09800
Br4869     Br  0.21778066  0.42956917  0.34328237    -0.05800
Br4870     Br  0.14731249  0.46978655  0.29618930    -0.02700
Br4871     Br  0.17831605  0.36623058  0.35716369     0.00100
Br4872     Br  0.15454555  0.45603007  0.36888127    -0.04300
C4873       C  0.16321898  0.55704876  0.28432653    -0.11700
C4874       C  0.14332484  0.55848492  0.28341112     0.03800
C4875       C  0.13395960  0.57168254  0.29475082    -0.12200
C4876       C  0.14412787  0.58358907  0.30686176     0.18700
C4877       C  0.16389013  0.58214325  0.30786031    -0.09300
C4878       C  0.17326787  0.56898050  0.29662957    -0.02200
H4879       H  0.11872370  0.57297238  0.29382663     0.05200
C4880       C  0.13396945  0.59791369  0.31789766     0.20600
H4881       H  0.18852450  0.56800429  0.29762806     0.10400
C4882       C  0.12390376  0.59248576  0.33408864    -0.15600
C4883       C  0.11385242  0.60577262  0.34472015     0.03400
C4884       C  0.11404920  0.62492319  0.33921020    -0.10900
C4885       C  0.12439731  0.63022059  0.32301373    -0.00900
C4886       C  0.13408644  0.61688664  0.31226094    -0.06100
H4887       H  0.12362375  0.57778444  0.33826911     0.06400
H4888       H  0.12473709  0.64482119  0.31851090     0.09800
Br4889     Br  0.17859972  0.59781796  0.32440770    -0.05800
Br4890     Br  0.12828763  0.54397098  0.26609466    -0.02700
Br4891     Br  0.09897744  0.59637949  0.36538254     0.00100
Br4892     Br  0.14659181  0.62505267  0.28953337    -0.04300
C4893       C  0.15563331  0.47241766  0.20957624    -0.11700
C4894       C  0.14495005  0.45748115  0.21727321     0.03800
C4895       C  0.13535218  0.44519715  0.20515057    -0.12200
C4896       C  0.13608521  0.44776045  0.18547375     0.18700
C4897       C  0.14538383  0.46358712  0.17793463    -0.09300
C4898       C  0.15533249  0.47561106  0.18996346    -0.02200
H4899       H  0.12792240  0.43316051  0.21102501     0.05200
C4900       C  0.12789624  0.43318355  0.17313577     0.20600
H4901       H  0.16317539  0.48731811  0.18394834     0.10400
C4902       C  0.10826074  0.43097994  0.17272669    -0.15600
C4903       C  0.10009803  0.41605262  0.16283637     0.03400
C4904       C  0.11173910  0.40294591  0.15324479    -0.10900
C4905       C  0.13133540  0.40562822  0.15293637    -0.00900
C4906       C  0.13950213  0.42058487  0.16292825    -0.06100
H4907       H  0.09929036  0.44071983  0.18042273     0.06400
H4908       H  0.14032894  0.39555170  0.14572510     0.09800
Br4909     Br  0.14495764  0.46916081  0.15136846    -0.05800
Br4910     Br  0.14445464  0.45211089  0.24388697    -0.02700
Br4911     Br  0.07294760  0.41443785  0.16264465     0.00100
Br4912     Br  0.16657914  0.42234878  0.16349193    -0.04300
C4913       C  0.78471135  0.77229164  0.03150534    -0.11700
C4914       C  0.80091639  0.77990857  0.02242426     0.03800
C4915       C  0.81019884  0.79559919  0.03019519    -0.12200
C4916       C  0.80361404  0.80408528  0.04685816     0.18700
C4917       C  0.78710757  0.79704524  0.05551173    -0.09300
C4918       C  0.77779977  0.78135321  0.04783352    -0.02200
H4919       H  0.82281467  0.80103233  0.02336469     0.05200
C4920       C  0.81499065  0.81915405  0.05594220     0.20600
H4921       H  0.76532247  0.77596749  0.05493974     0.10400
C4922       C  0.81333823  0.83797004  0.05008144    -0.15600
C4923       C  0.82372422  0.85242375  0.05895687     0.03400
C4924       C  0.83681513  0.84804492  0.07356235    -0.10900
C4925       C  0.83728373  0.82912355  0.07994780    -0.00900
C4926       C  0.82695893  0.81486235  0.07110877    -0.06100
H4927       H  0.80358058  0.84148499  0.03883203     0.06400
H4928       H  0.84520788  0.82507753  0.09230782     0.09800
Br4929     Br  0.77707853  0.80825527  0.07811597    -0.05800
Br4930     Br  0.81069722  0.77023453  0.99895609    -0.02700
Br4931     Br  0.81811899  0.87776105  0.05117348     0.00100
Br4932     Br  0.82958101  0.78956341  0.08044402    -0.04300
C4933       C  0.71273049  0.76969614  0.97042599    -0.11700
C4934       C  0.72140842  0.78215896  0.95747308     0.03800
C4935       C  0.71105223  0.79709019  0.94980413    -0.12200
C4936       C  0.69199617  0.79976498  0.95462248     0.18700
C4937       C  0.68315900  0.78701113  0.96714645    -0.09300
C4938       C  0.69364044  0.77236161  0.97521975    -0.02200
H4939       H  0.71791026  0.80671417  0.94004164     0.05200
C4940       C  0.68145178  0.81544523  0.94575397     0.20600
H4941       H  0.68670718  0.76267459  0.98486517     0.10400
C4942       C  0.67899603  0.81542859  0.92612944    -0.15600
C4943       C  0.66879828  0.82969720  0.91713517     0.03400
C4944       C  0.66013872  0.84428768  0.92793559    -0.10900
C4945       C  0.66367686  0.84467791  0.94759980    -0.00900
C4946       C  0.67433180  0.83060160  0.95641582    -0.06100
H4947       H  0.68500912  0.80413028  0.91772577     0.06400
H4948       H  0.65860634  0.85593957  0.95645553     0.09800
Br4949     Br  0.65658446  0.78824116  0.97265317    -0.05800
Br4950     Br  0.74755659  0.78005693  0.95041261    -0.02700
Br4951     Br  0.66745650  0.82804813  0.88996310     0.00100
Br4952     Br  0.67955898  0.83320273  0.98294497    -0.04300
C4953       C  0.70019185  0.69999235  0.05359654    -0.11700
C4954       C  0.68602294  0.71221252  0.06072531     0.03800
C4955       C  0.67217448  0.70520521  0.07322027    -0.12200
C4956       C  0.67211991  0.68619229  0.07876959     0.18700
C4957       C  0.68644457  0.67420424  0.07217150    -0.09300
C4958       C  0.70026908  0.68110193  0.05986540    -0.02200
H4959       H  0.66110924  0.71450423  0.07825691     0.05200
C4960       C  0.65658734  0.67863381  0.09063840     0.20600
H4961       H  0.71101969  0.67139475  0.05493179     0.10400
C4962       C  0.64178080  0.66874289  0.08192799    -0.15600
C4963       C  0.62733916  0.66045704  0.09269751     0.03400
C4964       C  0.62765080  0.66188133  0.11259518    -0.10900
C4965       C  0.64244148  0.67193686  0.12127393    -0.00900
C4966       C  0.65684594  0.68025113  0.11046979    -0.06100
H4967       H  0.64146760  0.66749600  0.06664786     0.06400
H4968       H  0.64282636  0.67324690  0.13654699     0.09800
Br4969     Br  0.68747653  0.64811283  0.07934448    -0.05800
Br4970     Br  0.68387385  0.73812552  0.05320477    -0.02700
Br4971     Br  0.60698664  0.64856050  0.07936462     0.00100
Br4972     Br  0.67678487  0.69335980  0.12331120    -0.04300
C4973       C  0.80229619  0.70485493  0.94915082    -0.11700
C4974       C  0.82199988  0.70589883  0.95260219     0.03800
C4975       C  0.83478720  0.69794116  0.93968787    -0.12200
C4976       C  0.82847323  0.68893502  0.92319759     0.18700
C4977       C  0.80894449  0.68813904  0.91951854    -0.09300
C4978       C  0.79610866  0.69616394  0.93231859    -0.02200
H4979       H  0.84981237  0.69871060  0.94256594     0.05200
C4980       C  0.84253874  0.68002342  0.91039489     0.20600
H4981       H  0.78113010  0.69489219  0.92940090     0.10400
C4982       C  0.85197279  0.66373892  0.91632683    -0.15600
C4983       C  0.86630371  0.65547550  0.90532595     0.03400
C4984       C  0.87171226  0.66378165  0.88774875    -0.10900
C4985       C  0.86122051  0.67959737  0.88155333    -0.00900
C4986       C  0.84716456  0.68787683  0.89276140    -0.06100
H4987       H  0.84830133  0.65754011  0.92986934     0.06400
H4988       H  0.86408055  0.68594283  0.86792126     0.09800
Br4989     Br  0.79907367  0.67522139  0.89780069    -0.05800
Br4990     Br  0.83263089  0.71828644  0.97431054    -0.02700
Br4991     Br  0.87745329  0.63347185  0.91642444     0.00100
Br4992     Br  0.83549995  0.71062631  0.88386582    -0.04300
C4993       C  0.71237899  0.66845232  0.95783554    -0.11700
C4994       C  0.69699096  0.65763909  0.96462762     0.03800
C4995       C  0.68536496  0.64797082  0.95180435    -0.12200
C4996       C  0.68893779  0.64877230  0.93228813     0.18700
C4997       C  0.70462502  0.65898845  0.92558604    -0.09300
C4998       C  0.71607251  0.66882164  0.93828749    -0.02200
H4999       H  0.67337086  0.63998228  0.95703352     0.05200
C5000       C  0.67641227  0.63875231  0.91895279     0.20600
H5001       H  0.72792265  0.67688267  0.93283191     0.10400
C5002       C  0.66202153  0.64867716  0.90962372    -0.15600
C5003       C  0.65131920  0.64006110  0.89532556     0.03400
C5004       C  0.65508792  0.62120919  0.89018291    -0.10900
C5005       C  0.66908665  0.61119459  0.90010749    -0.00900
C5006       C  0.67970432  0.61979569  0.91432045    -0.06100
H5007       H  0.65954456  0.66336056  0.91306284     0.06400
H5008       H  0.67199626  0.59661600  0.89657281     0.09800
Br5009     Br  0.71099116  0.65978607  0.89917724    -0.05800
Br5010     Br  0.69034282  0.65660119  0.99096361    -0.02700
Br5011     Br  0.63302912  0.65520897  0.88237075     0.00100
Br5012     Br  0.69921772  0.60542982  0.92639054    -0.04300
C5013       C  0.79150203  0.66780548  0.03963344    -0.11700
C5014       C  0.81119377  0.66592567  0.03692945     0.03800
C5015       C  0.82193871  0.65554140  0.04985301    -0.12200
C5016       C  0.81336500  0.64684518  0.06548982     0.18700
C5017       C  0.79364690  0.64842569  0.06802164    -0.09300
C5018       C  0.78287463  0.65868305  0.05502905    -0.02200
H5019       H  0.83706433  0.65427956  0.04773664     0.05200
C5020       C  0.82526988  0.63688096  0.07945006     0.20600
H5021       H  0.76780105  0.66015569  0.05738283     0.10400
C5022       C  0.83736281  0.64737890  0.09116567    -0.15600
C5023       C  0.84765230  0.63861906  0.10561468     0.03400
C5024       C  0.84577048  0.61906909  0.10854539    -0.10900
C5025       C  0.83417216  0.60851670  0.09635551    -0.00900
C5026       C  0.82422517  0.61719597  0.08170941    -0.06100
H5027       H  0.83835048  0.66252952  0.08941667     0.06400
H5028       H  0.83287489  0.59340301  0.09826758     0.09800
Br5029     Br  0.78097017  0.63786827  0.08963571    -0.05800
Br5030     Br  0.82399669  0.67655278  0.01542531    -0.02700
Br5031     Br  0.86278695  0.65419239  0.12176294     0.00100
Br5032     Br  0.80959594  0.60160004  0.06503240    -0.04300
C5033       C  0.33440939  0.84534936  0.42131635    -0.11700
C5034       C  0.32613963  0.83095421  0.40991185     0.03800
C5035       C  0.31518134  0.81666096  0.41815724    -0.12200
C5036       C  0.31185477  0.81623958  0.43766024     0.18700
C5037       C  0.31908596  0.83085630  0.44897285    -0.09300
C5038       C  0.33012266  0.84519920  0.44086773    -0.02200
H5039       H  0.30958166  0.80548656  0.40931931     0.05200
C5040       C  0.30203824  0.79972501  0.44609510     0.20600
H5041       H  0.33533649  0.85595153  0.45025790     0.10400
C5042       C  0.31270956  0.78638751  0.45600034    -0.15600
C5043       C  0.30428557  0.77033139  0.46394457     0.03400
C5044       C  0.28448332  0.76733940  0.46214540    -0.10900
C5045       C  0.27389977  0.78082488  0.45199584    -0.00900
C5046       C  0.28249536  0.79679019  0.44398069    -0.06100
H5047       H  0.32782222  0.78846307  0.45746839     0.06400
H5048       H  0.25878037  0.77908017  0.45032438     0.09800
Br5049     Br  0.31417353  0.83176326  0.47567767    -0.05800
Br5050     Br  0.32960620  0.82924530  0.38292804    -0.02700
Br5051     Br  0.32119364  0.75340127  0.47674348     0.00100
Br5052     Br  0.26695098  0.81448346  0.43065578    -0.04300
C5053       C  0.21870411  0.77061958  0.52815622    -0.11700
C5054       C  0.22679820  0.78023933  0.54368861     0.03800
C5055       C  0.21739257  0.79566444  0.55164171    -0.12200
C5056       C  0.20013877  0.80184155  0.54423739     0.18700
C5057       C  0.19251512  0.79292704  0.52822818    -0.09300
C5058       C  0.20180536  0.77746860  0.52029349    -0.02200
H5059       H  0.22332477  0.80261592  0.56393389     0.05200
C5060       C  0.18915058  0.81598129  0.55474199     0.20600
H5061       H  0.19546656  0.77043930  0.50825434     0.10400
C5062       C  0.19110019  0.83518175  0.55064928    -0.15600
C5063       C  0.18024076  0.84866989  0.56028391     0.03400
C5064       C  0.16663936  0.84288347  0.57397795    -0.10900
C5065       C  0.16615072  0.82354392  0.57886795    -0.00900
C5066       C  0.17686769  0.81023197  0.56918014    -0.06100
H5067       H  0.20110968  0.83967450  0.53992043     0.06400
H5068       H  0.15786484  0.81830329  0.59052451     0.09800
Br5069     Br  0.16903316  0.80090942  0.51731957    -0.05800
Br5070     Br  0.25088729  0.77361995  0.55425480    -0.02700
Br5071     Br  0.18535916  0.87461529  0.55428280     0.00100
Br5072     Br  0.17412801  0.78415643  0.57609722    -0.04300
C5073       C  0.12231378  0.67039742  0.38588858    -0.11700
C5074       C  0.14106885  0.66372867  0.38459376     0.03800
C5075       C  0.15476035  0.67026399  0.39728665    -0.12200
C5076       C  0.15016568  0.68341376  0.41139137     0.18700
C5077       C  0.13154520  0.69029007  0.41255154    -0.09300
C5078       C  0.11782645  0.68381048  0.39983755    -0.02200
H5079       H  0.16911404  0.66504128  0.39618262     0.05200
C5080       C  0.16493468  0.68924008  0.42504504     0.20600
H5081       H  0.10348647  0.68904180  0.40104278     0.10400
C5082       C  0.17300247  0.70729113  0.42388079    -0.15600
C5083       C  0.18778574  0.71272616  0.43597125     0.03400
C5084       C  0.19489152  0.69980146  0.44952285    -0.10900
C5085       C  0.18634287  0.68185457  0.45075776    -0.00900
C5086       C  0.17156590  0.67658565  0.43878049    -0.06100
H5087       H  0.16794390  0.71710885  0.41329986     0.06400
H5088       H  0.19110997  0.67173176  0.46117503     0.09800
Br5089     Br  0.12406323  0.70792461  0.43172225    -0.05800
Br5090     Br  0.14925082  0.64661561  0.36524948    -0.02700
Br5091     Br  0.19781307  0.73767552  0.43247833     0.00100
Br5092     Br  0.16057836  0.65200340  0.44194627    -0.04300
C5093       C  0.30416439  0.70114553  0.54635548    -0.11700
C5094       C  0.31428989  0.68432071  0.54300872     0.03800
C5095       C  0.32823602  0.67846392  0.55573162    -0.12200
C5096       C  0.33257057  0.68914839  0.57186623     0.18700
C5097       C  0.32280015  0.70624155  0.57498227    -0.09300
C5098       C  0.30846909  0.71189088  0.56247819    -0.02200
H5099       H  0.33567993  0.66537410  0.55308850     0.05200
C5100       C  0.34769992  0.68226866  0.58474777     0.20600
H5101       H  0.30098843  0.72496074  0.56509226     0.10400
C5102       C  0.36622840  0.68049917  0.57774086    -0.15600
C5103       C  0.38074286  0.67316819  0.58903085     0.03400
C5104       C  0.37680422  0.66704168  0.60757764    -0.10900
C5105       C  0.35849031  0.66949801  0.61483994    -0.00900
C5106       C  0.34388025  0.67657282  0.60351234    -0.06100
H5107       H  0.36944393  0.68500965  0.56343982     0.06400
H5108       H  0.35551556  0.66583967  0.62941696     0.09800
Br5109     Br  0.32930904  0.72294504  0.59532718    -0.05800
Br5110     Br  0.30892234  0.66815835  0.52187180    -0.02700
Br5111     Br  0.40590965  0.67315733  0.57896888     0.00100
Br5112     Br  0.31884599  0.67711877  0.61405055    -0.04300
C5113       C  0.21017962  0.66836144  0.54190805    -0.11700
C5114       C  0.19431141  0.65833578  0.53503053     0.03800
C5115       C  0.18195133  0.64938324  0.54777175    -0.12200
C5116       C  0.18510862  0.65022499  0.56735124     0.18700
C5117       C  0.20131990  0.65956154  0.57413959    -0.09300
C5118       C  0.21349318  0.66871380  0.56150643    -0.02200
H5119       H  0.16965048  0.64200460  0.54241477     0.05200
C5120       C  0.17185484  0.64081566  0.58061838     0.20600
H5121       H  0.22571210  0.67609657  0.56704896     0.10400
C5122       C  0.17162407  0.62108083  0.58154436    -0.15600
C5123       C  0.16171856  0.61180417  0.59595759     0.03400
C5124       C  0.15210654  0.62234753  0.60991866    -0.10900
C5125       C  0.15089885  0.64197464  0.60800708    -0.00900
C5126       C  0.16058355  0.65124248  0.59337210    -0.06100
H5127       H  0.17974562  0.61289880  0.57144966     0.06400
H5128       H  0.14311178  0.65015761  0.61836359     0.09800
Br5129     Br  0.20779100  0.65963086  0.60052470    -0.05800
Br5130     Br  0.18798740  0.65748041  0.50863437    -0.02700
Br5131     Br  0.16169667  0.58471641  0.59596894     0.00100
Br5132     Br  0.15840132  0.67813961  0.59150765    -0.04300
C5133       C  0.28971120  0.66555434  0.45745603    -0.11700
C5134       C  0.30939906  0.66889054  0.45551405     0.03800
C5135       C  0.31964350  0.65974288  0.44135639    -0.12200
C5136       C  0.31093008  0.64682221  0.42922982     0.18700
C5137       C  0.29174099  0.64216907  0.43214818    -0.09300
C5138       C  0.28123327  0.65169051  0.44602982    -0.02200
H5139       H  0.33455988  0.66287487  0.43967156     0.05200
C5140       C  0.32240559  0.63841110  0.41385661     0.20600
H5141       H  0.26631577  0.64853847  0.44757061     0.10400
C5142       C  0.33830541  0.62756726  0.41854668    -0.15600
C5143       C  0.34985455  0.61976581  0.40446491     0.03400
C5144       C  0.34553894  0.62278411  0.38524375    -0.10900
C5145       C  0.33000340  0.63423855  0.38062146    -0.00900
C5146       C  0.31859261  0.64217147  0.39467834    -0.06100
H5147       H  0.34158283  0.62493983  0.43328345     0.06400
H5148       H  0.32661508  0.63686618  0.36590759     0.09800
Br5149     Br  0.27947026  0.62260759  0.41794305    -0.05800
Br5150     Br  0.32365319  0.68517156  0.47197699    -0.02700
Br5151     Br  0.37037176  0.60418355  0.41251877     0.00100
Br5152     Br  0.29843254  0.65851636  0.38689496    -0.04300
loop_ 
_geom_bond_atom_site_label_1 
_geom_bond_atom_site_label_2 
_geom_bond_distance 
_geom_bond_site_symmetry_2 
_ccdc_geom_bond_type 
O1           C17   1.274       .  A
O1           Zn7   2.023       .  S
C2           O18   1.274       .  A
C2           O15   1.275       .  A
C2         C5093   1.482       .  S
O3           C16   1.280       .  A
O3          Cd10   2.101       .  S
O4           C22   1.276       .  A
O4          Cd13   2.066       .  S
O5           C19   1.275       .  A
O5           Cd9   2.060       .  S
O6           C17   1.278       .  A
O6           Cd9   2.088       .  S
Zn7          O18   2.022       .  S
Zn7          O20   1.979       .  S
Zn7          O12   1.908       .  S
O8           C19   1.277       .  A
O8          Cd13   2.071       .  S
Cd9          O11   2.094       .  S
Cd9          O12   1.996       .  S
Cd10         O14   2.068       .  S
Cd10         O23   2.095       .  S
Cd10         O12   1.996       .  S
O11          C21   1.277       .  A
O12         Cd13   1.986       .  S
Cd13         O15   2.089       .  S
O14          C21   1.276       .  A
C16          O20   1.270       .  A
C16        C5133   1.484       .  S
C17        C5044   1.499       .  S
C19        C5053   1.477       .  S
C21        C5084   1.495       .  S
C22          O23   1.279       .  A
C22        C5113   1.484       .  S
O24          C40   1.274       .  A
O24         Zn30   2.024   1_556  S
C25          O41   1.277       .  A
C25          O38   1.280       .  A
C25        C4913   1.491       .  S
O26          C39   1.277       .  A
O26         Cd33   2.079       .  S
O27          C45   1.280       .  A
O27         Cd36   2.112       .  S
O28          C42   1.276       .  A
O28         Cd32   2.069       .  S
O29          C40   1.275       .  A
O29         Cd32   2.076       .  S
Zn30         O41   2.029       .  S
Zn30         O43   2.012       .  S
Zn30         O35   1.925       .  S
O31          C42   1.278       .  A
O31         Cd36   2.082   1_556  S
Cd32         O34   2.057       .  S
Cd32         O35   1.984   1_556  S
Cd33         O37   2.087   1_554  S
Cd33         O46   2.048       .  S
Cd33         O35   1.988       .  S
O34          C44   1.274       .  A
O35         Cd36   2.003       .  S
Cd36         O38   2.095       .  S
O37          C44   1.277       .  A
C39          O43   1.275       .  A
C39        C5013   1.477       .  S
C40        C4973   1.492       .  S
C42        C4933   1.476       .  S
C44        C4993   1.479       .  S
C45          O46   1.274       .  A
C45        C4953   1.494       .  S
O47          C63   1.271       .  A
O47         Zn53   2.012       .  S
C48          O64   1.275       .  A
C48          O61   1.278       .  A
C48        C4813   1.476       .  S
O49          C62   1.275       .  A
O49         Cd56   2.073       .  S
O50          C68   1.282       .  A
O50         Cd59   2.114       .  S
O51          C65   1.277       .  A
O51         Cd55   2.072       .  S
O52          C63   1.277       .  A
O52         Cd55   2.089       .  S
Zn53         O64   2.009       .  S
Zn53         O66   1.986       .  S
Zn53         O58   1.913       .  S
O54          C65   1.277       .  A
O54         Cd59   2.076       .  S
Cd55         O57   2.044       .  S
Cd55         O58   1.983       .  S
Cd56         O60   2.068       .  S
Cd56         O69   2.058       .  S
Cd56         O58   1.984       .  S
O57          C67   1.273       .  A
O58         Cd59   1.995       .  S
Cd59         O61   2.080       .  S
O60          C67   1.275       .  A
C62          O66   1.272       .  A
C62        C4893   1.468       .  S
C63        C4833   1.499       .  S
C65        C4804   1.478       .  S
C67        C4873   1.473       .  S
C68          O69   1.271       .  A
C68        C4853   1.501       .  S
O70          C86   1.271       .  A
O70         Zn76   2.001       .  S
C71          O87   1.274       .  A
C71          O84   1.277       .  A
C71        C4673   1.483       .  S
O72          C85   1.279       .  A
O72         Cd79   2.091       .  S
O73          C91   1.280       .  A
O73         Cd82   2.099       .  S
O74          C88   1.278       .  A
O74         Cd78   2.070       .  S
O75          C86   1.277       .  A
O75         Cd78   2.088       .  S
Zn76         O87   2.013       .  S
Zn76         O89   1.990       .  S
Zn76         O81   1.903       .  S
O77          C88   1.277       .  A
O77         Cd82   2.068       .  S
Cd78         O80   2.059       .  S
Cd78         O81   1.979       .  S
Cd79         O83   2.101       .  S
Cd79         O92   2.062       .  S
Cd79         O81   1.988       .  S
O80          C90   1.275       .  A
O81         Cd82   1.994       .  S
Cd82         O84   2.094       .  S
O83          C90   1.279       .  A
C85          O89   1.273       .  A
C85        C4784   1.467       .  S
C86        C4713   1.490       .  S
C88        C4704   1.473       .  S
C90        C4753   1.486       .  S
C91          O92   1.274       .  A
C91        C4744   1.483       .  S
O93         C109   1.274       .  A
O93         Zn99   2.023       .  S
C94         O110   1.274       .  A
C94         O107   1.277       .  A
C94        C4553   1.487       .  S
O95         C108   1.280       .  A
O95        Cd102   2.091       .  S
O96         C114   1.279       .  A
O96        Cd105   2.100       .  S
O97         C111   1.278       .  A
O97        Cd101   2.075       .  S
O98         C109   1.276       .  A
O98        Cd101   2.089       .  S
Zn99        O110   2.010       .  S
Zn99        O112   1.990       .  S
Zn99        O104   1.908       .  S
O100        C111   1.277       .  A
O100       Cd105   2.071       .  S
Cd101       O103   2.054       .  S
Cd101       O104   1.968       .  S
Cd102       O106   2.088       .  S
Cd102       O115   2.075       .  S
Cd102       O104   1.983       .  S
O103        C113   1.274       .  A
O104       Cd105   1.988       .  S
Cd105       O107   2.075       .  S
O106        C113   1.279       .  A
C108        O112   1.273       .  A
C108       C4644   1.478       .  S
C109       C4593   1.485       .  S
C111       C4584   1.477       .  S
C113       C4664   1.472       .  S
C114        O115   1.277       .  A
C114       C4613   1.493       .  S
O116        C132   1.274       .  A
O116       Zn122   2.001       .  S
C117        O133   1.273       .  A
C117        O130   1.275       .  A
C117       C4484   1.485       .  S
O118        C131   1.278       .  A
O118       Cd125   2.086       .  S
O119        C137   1.273       .  A
O119       Cd128   2.048       .  S
O120        C134   1.276       .  A
O120       Cd124   2.070       .  S
O121        C132   1.277       .  A
O121       Cd124   2.084       .  S
Zn122       O133   2.015       .  S
Zn122       O135   1.975       .  S
Zn122       O127   1.915       .  S
O123        C134   1.278       .  A
O123       Cd128   2.074       .  S
Cd124       O126   2.104       .  S
Cd124       O127   1.994       .  S
Cd125       O129   2.067       .  S
Cd125       O138   2.092       .  S
Cd125       O127   1.992       .  S
O126        C136   1.279       .  A
O127       Cd128   1.976       .  S
Cd128       O130   2.085       .  S
O129        C136   1.276       .  A
C131        O135   1.270       .  A
C131       C4513   1.469       .  S
C132       C4433   1.477       .  S
C134       C4453   1.474       .  S
C136       C4493   1.497       .  S
C137        O138   1.279       .  A
C137       C4544   1.478       .  S
O139        C155   1.279       .  A
O139       Zn145   2.029       .  S
C140        O156   1.276       .  A
C140        O153   1.274       .  A
C140       C4384   1.493       .  S
O141        C154   1.279       .  A
O141       Cd148   2.085       .  S
O142        C160   1.274       .  A
O142       Cd151   2.048       .  S
O143        C157   1.275       .  A
O143       Cd147   2.065   1_655  S
O144        C155   1.276       .  A
O144       Cd147   2.069       .  S
Zn145       O156   2.029   1_455  S
Zn145       O158   2.012       .  S
Zn145       O150   1.915   1_455  S
O146        C157   1.278       .  A
O146       Cd151   2.077       .  S
Cd147       O149   2.101       .  S
Cd147       O150   1.985   1_455  S
Cd148       O152   2.068       .  S
Cd148       O161   2.087   1_455  S
Cd148       O150   1.980   1_455  S
O149        C159   1.278       .  A
O150       Cd151   1.977       .  S
Cd151       O153   2.078       .  S
O152        C159   1.276       .  A
C154        O158   1.276       .  A
C154       C4413   1.480       .  S
C155       C4313   1.486       .  S
C157       C4333   1.479       .  S
C159       C4353   1.497       .  S
C160        O161   1.278       .  A
C160       C4393   1.481       .  S
O162        C178   1.275       .  A
O162       Zn168   2.026       .  S
C163        O179   1.277       .  A
C163        O176   1.279       .  A
C163       C4193   1.479       .  S
O164        C177   1.279       .  A
O164       Cd171   2.094       .  S
O165        C183   1.281       .  A
O165       Cd174   2.107       .  S
O166        C180   1.277       .  A
O166       Cd170   2.077       .  S
O167        C178   1.274       .  A
O167       Cd170   2.076       .  S
Zn168       O179   2.015   1_545  S
Zn168       O181   1.992   1_545  S
Zn168       O173   1.908       .  S
O169        C180   1.278       .  A
O169       Cd174   2.085   1_545  S
Cd170       O172   2.050       .  S
Cd170       O173   1.975       .  S
Cd171       O175   2.086   1_565  S
Cd171       O184   2.052       .  S
Cd171       O173   1.985   1_565  S
O172        C182   1.274       .  A
O173       Cd174   1.993   1_545  S
Cd174       O176   2.089       .  S
O175        C182   1.279       .  A
C177        O181   1.273       .  A
C177       C4284   1.481       .  S
C178       C4233   1.489       .  S
C180       C4213   1.481       .  S
C182       C4293   1.470       .  S
C183        O184   1.271       .  A
C183       C4253   1.497       .  S
O185        C201   1.275       .  A
O185       Zn191   2.017       .  S
C186        O202   1.276       .  A
C186        O199   1.274       .  A
C186       C4113   1.486       .  S
O187        C200   1.279       .  A
O187       Cd194   2.092       .  S
O188        C206   1.274       .  A
O188       Cd197   2.054       .  S
O189        C203   1.278       .  A
O189       Cd193   2.085       .  S
O190        C201   1.279       .  A
O190       Cd193   2.085       .  S
Zn191       O202   2.030       .  S
Zn191       O204   2.007       .  S
Zn191       O196   1.922       .  S
O192        C203   1.277       .  A
O192       Cd197   2.071       .  S
Cd193       O195   2.113       .  S
Cd193       O196   1.996       .  S
Cd194       O198   2.060       .  S
Cd194       O207   2.088       .  S
Cd194       O196   1.986       .  S
O195        C205   1.282       .  A
O196       Cd197   1.981       .  S
Cd197       O199   2.074       .  S
O198        C205   1.271       .  A
C200        O204   1.275       .  A
C200       C4173   1.485       .  S
C201       C4073   1.491       .  S
C203       C4093   1.480       .  S
C205       C4144   1.502       .  S
C206        O207   1.279       .  A
C206       C4153   1.479       .  S
C208        C209   1.541       .  S
C208        C214   1.533       .  S
C208        C212   1.549       .  S
C208       C4053   1.544       .  S
C209        H216   1.086       .  S
C209        C210   1.373       .  D
C210        C211   1.548       .  S
C210       C4033   1.500       .  S
C211        C215   1.536       .  S
C211        C213   1.542       .  S
C211        H217   1.108       .  S
C212        H218   1.081       .  S
C212        C213   1.368       .  D
C213       C4133   1.484       .  S
C214        H219   1.087       .  S
C214        C215   1.358       .  D
C215       C4273   1.483       .  S
C220        C221   1.546       .  S
C220        C226   1.532       .  S
C220        C224   1.542       .  S
C220       C4024   1.541       .  S
C221        H228   1.081       .  S
C221        C222   1.367       .  D
C222        C223   1.544       .  S
C222       C4244   1.488       .  S
C223        C227   1.543       .  S
C223        C225   1.543       .  S
C223        H229   1.111       .  S
C224        H230   1.086       .  S
C224        C225   1.369       .  D
C225       C3993   1.489       .  S
C226        H231   1.086       .  S
C226        C227   1.361       .  D
C227       C4404   1.488       .  S
C232        C233   1.538       .  S
C232        C238   1.541       .  S
C232        C236   1.532       .  S
C232       C3984   1.533       .  S
C233        H240   1.083       .  S
C233        C234   1.366       .  D
C234        C235   1.543       .  S
C234       C3944   1.477       .  S
C235        C239   1.538       .  S
C235        C237   1.543       .  S
C235        H241   1.111       .  S
C236        H242   1.086       .  S
C236        C237   1.365       .  D
C237       C3953   1.486       .  S
C238        H243   1.086       .  S
C238        C239   1.361       .  D
C239       C4164   1.484       .  S
C244        C245   1.528       .  S
C244        C250   1.536       .  S
C244        C248   1.549       .  S
C244       C3924   1.539       .  S
C245        H252   1.086       .  S
C245        C246   1.367       .  D
C246        C247   1.551       .  S
C246       C3893   1.493       .  S
C247        C251   1.545       .  S
C247        C249   1.544       .  S
C247        H253   1.111       .  S
C248        H254   1.083       .  S
C248        C249   1.372       .  D
C249       C4364   1.493       .  S
C250        H255   1.085       .  S
C250        C251   1.356       .  D
C251       C4653   1.486       .  S
C256        C257   1.538       .  S
C256        C262   1.532       .  S
C256        C260   1.551       .  S
C256       C3884   1.540       .  S
C257        H264   1.085       .  S
C257        C258   1.368       .  D
C258        C259   1.545       .  S
C258       C4624   1.489       .  S
C259        C263   1.535       .  S
C259        C261   1.540       .  S
C259        H265   1.110       .  S
C260        H266   1.081       .  S
C260        C261   1.370       .  D
C261       C3853   1.491       .  S
C262        H267   1.087       .  S
C262        C263   1.358       .  D
C263       C3833   1.475       .  S
C268        C269   1.537       .  S
C268        C274   1.545       .  S
C268        C272   1.533       .  S
C268       C5064   1.537       .  S
C269        H276   1.085       .  S
C269        C270   1.368       .  D
C270        C271   1.546       .  S
C270       C3813   1.488       .  S
C271        C275   1.533       .  S
C271        C273   1.542       .  S
C271        H277   1.110       .  S
C272        H278   1.086       .  S
C272        C273   1.366       .  D
C273       C3773   1.483       .  S
C274        H279   1.081       .  S
C274        C275   1.360       .  D
C275       C3804   1.482       .  S
O280        C296   1.275       .  A
O280       Zn286   2.028   1_455  S
C281        O297   1.277       .  A
C281        O294   1.274       .  A
C281       C4044   1.489       .  S
O282        C295   1.277       .  A
O282       Cd289   2.096       .  S
O283        C301   1.275       .  A
O283       Cd292   2.065       .  S
O284        C298   1.277       .  A
O284       Cd288   2.088   1_565  S
O285        C296   1.275       .  A
O285       Cd288   2.072       .  S
Zn286       O297   2.034   1_545  S
Zn286       O299   2.015       .  S
Zn286       O291   1.948       .  S
O287        C298   1.273       .  A
O287       Cd292   2.073   1_455  S
Cd288       O290   2.061       .  S
Cd288       O291   2.001   1_455  S
Cd289       O293   2.092   1_655  S
Cd289       O302   2.091       .  S
Cd289       O291   2.019       .  S
O290        C300   1.273       .  A
O291       Cd292   1.996   1_545  S
Cd292       O294   2.071       .  S
O293        C300   1.278       .  A
C295        O299   1.275       .  A
C295       C4004   1.496       .  S
C296       C3904   1.486       .  S
C298       C3824   1.496       .  S
C300       C3864   1.487       .  S
C301        O302   1.277   1_565  A
C301       C3964   1.484       .  S
O303        C319   1.275       .  A
O303       Zn309   2.041       .  S
C304        O320   1.278       .  A
C304        O317   1.279       .  A
C304       C3673   1.487       .  S
O305        C318   1.275       .  A
O305       Cd312   2.077       .  S
O306        C324   1.282       .  A
O306       Cd315   2.122       .  S
O307        C321   1.278       .  A
O307       Cd311   2.081       .  S
O308        C319   1.276       .  A
O308       Cd311   2.082       .  S
Zn309       O320   2.020       .  S
Zn309       O322   2.003       .  S
Zn309       O314   1.920       .  S
O310        C321   1.277       .  A
O310       Cd315   2.071       .  S
Cd311       O313   2.048       .  S
Cd311       O314   1.985       .  S
Cd312       O316   2.074       .  S
Cd312       O325   2.062       .  S
Cd312       O314   1.986       .  S
O313        C323   1.274       .  A
O314       Cd315   1.997       .  S
Cd315       O317   2.090       .  S
O316        C323   1.277       .  A
C318        O322   1.274       .  A
C318       C3733   1.491       .  S
C319       C3693   1.500       .  S
C321       C4013   1.482       .  S
C323       C3753   1.469       .  S
C324        O325   1.274       .  A
C324       C3713   1.498       .  S
O326        C342   1.275       .  A
O326       Zn332   2.028   1_455  S
C327        O343   1.275       .  A
C327        O340   1.276       .  A
C327       C3604   1.469       .  S
O328        C341   1.279       .  A
O328       Cd335   2.098       .  S
O329        C347   1.278       .  A
O329       Cd338   2.092       .  S
O330        C344   1.277       .  A
O330       Cd334   2.077       .  S
O331        C342   1.275       .  A
O331       Cd334   2.072       .  S
Zn332       O343   2.014       .  S
Zn332       O345   1.996       .  S
Zn332       O337   1.924       .  S
O333        C344   1.274       .  A
O333       Cd338   2.075   1_455  S
Cd334       O336   2.048       .  S
Cd334       O337   1.978   1_455  S
Cd335       O339   2.089   1_655  S
Cd335       O348   2.061       .  S
Cd335       O337   1.998       .  S
O336        C346   1.274       .  A
O337       Cd338   1.993       .  S
Cd338       O340   2.069       .  S
O339        C346   1.278       .  A
C341        O345   1.272       .  A
C341       C3653   1.483       .  S
C342       C3644   1.485       .  S
C344       C3613   1.496       .  S
C346       C3793   1.480       .  S
C347        O348   1.275       .  A
C347       C3933   1.488       .  S
C349        C350   1.540       .  S
C349        C355   1.535       .  S
C349        C353   1.550       .  S
C349       C3584   1.542       .  S
C350        H357   1.086       .  S
C350        C351   1.371       .  D
C351        C352   1.544       .  S
C351       C3633   1.495       .  S
C352        C356   1.534       .  S
C352        C354   1.536       .  S
C352        H358   1.110       .  S
C353        H359   1.080       .  S
C353        C354   1.367       .  D
C354       C3553   1.479       .  S
C355        H360   1.087       .  S
C355        C356   1.360       .  D
C356       C5124   1.480       .  S
C361        C362   1.536       .  S
C361        C367   1.536       .  S
C361        C365   1.548       .  S
C361       C4573   1.536       .  S
C362        H369   1.086       .  S
C362        C363   1.365       .  D
C363        C364   1.546       .  S
C363       C4864   1.491       .  S
C364        C368   1.539       .  S
C364        C366   1.541       .  S
C364        H370   1.111       .  S
C365        H371   1.082       .  S
C365        C366   1.368       .  D
C366       C3533   1.484       .  S
C367        H372   1.087       .  S
C367        C368   1.361       .  D
C368       C4424   1.482       .  S
C373        C374   1.548       .  S
C373        C379   1.534       .  S
C373        C377   1.537       .  S
C373       C4104   1.538       .  S
C374        H381   1.081       .  S
C374        C375   1.369       .  D
C375        C376   1.541       .  S
C375       C3513   1.483       .  S
C376        C380   1.536       .  S
C376        C378   1.545       .  S
C376        H382   1.111       .  S
C377        H383   1.085       .  S
C377        C378   1.368       .  D
C378       C3493   1.494       .  S
C379        H384   1.087       .  S
C379        C380   1.359       .  D
C380       C3664   1.477       .  S
C385        C386   1.546       .  S
C385        C391   1.523       .  S
C385        C389   1.532       .  S
C385       C4464   1.534       .  S
C386        H393   1.080       .  S
C386        C387   1.373       .  D
C387        C388   1.544       .  S
C387       C3473   1.497       .  S
C388        C392   1.548       .  S
C388        C390   1.551       .  S
C388        H394   1.103       .  S
C389        H395   1.086       .  S
C389        C390   1.370       .  D
C390       C4373   1.504       .  S
C391        H396   1.088       .  S
C391        C392   1.354       .  D
C392       C3764   1.474       .  S
C397        C398   1.550       .  S
C397        C403   1.534       .  S
C397        C401   1.544       .  S
C397       C3453   1.545       .  S
C398        H405   1.081       .  S
C398        C399   1.369       .  D
C399        C400   1.541       .  S
C399       C3724   1.488       .  S
C400        C404   1.535       .  S
C400        C402   1.546       .  S
C400        H406   1.111       .  S
C401        H407   1.085       .  S
C401        C402   1.372       .  D
C402       C3444   1.499       .  S
C403        H408   1.087       .  S
C403        C404   1.358       .  D
C404       C3413   1.477       .  S
C409        C410   1.537       .  S
C409        C415   1.531       .  S
C409        C413   1.547       .  S
C409       C3404   1.536       .  S
C410        H417   1.085       .  S
C410        C411   1.369       .  D
C411        C412   1.544       .  S
C411       C3373   1.491       .  S
C412        C416   1.539       .  S
C412        C414   1.540       .  S
C412        H418   1.110       .  S
C413        H419   1.082       .  S
C413        C414   1.368       .  D
C414       C5073   1.486       .  S
C415        H420   1.087       .  S
C415        C416   1.359       .  D
C416       C4884   1.484       .  S
O421        C437   1.274       .  A
O421       Zn427   2.027       .  S
C422        O438   1.275       .  A
C422        O435   1.272       .  A
C422       C3524   1.483       .  S
O423        C436   1.279       .  A
O423       Cd430   2.092       .  S
O424        C442   1.273       .  A
O424       Cd433   2.057       .  S
O425        C439   1.277       .  A
O425       Cd429   2.087   1_655  S
O426        C437   1.277       .  A
O426       Cd429   2.089       .  S
Zn427       O438   2.038   1_455  S
Zn427       O440   1.993       .  S
Zn427       O432   1.949       .  S
O428        C439   1.273       .  A
O428       Cd433   2.047       .  S
Cd429       O431   2.066       .  S
Cd429       O432   1.998       .  S
Cd430       O434   2.105       .  S
Cd430       O443   2.102       .  S
Cd430       O432   2.021       .  S
O431        C441   1.274       .  A
O432       Cd433   1.988   1_455  S
Cd433       O435   2.053       .  S
O434        C441   1.280       .  A
C436        O440   1.271       .  A
C436       C3564   1.486       .  S
C437       C3384   1.482       .  S
C439       C3484   1.481       .  S
C441       C3544   1.492       .  S
C442        O443   1.278   1_655  A
C442       C3433   1.490       .  S
C444        C445   1.540       .  S
C444        C450   1.534       .  S
C444        C448   1.547       .  S
C444       C3353   1.543       .  S
C445        H452   1.086       .  S
C445        C446   1.368       .  D
C446        C447   1.544       .  S
C446       C3333   1.488       .  S
C447        C451   1.542       .  S
C447        C449   1.545       .  S
C447        H453   1.110       .  S
C448        H454   1.081       .  S
C448        C449   1.369       .  D
C449       C4473   1.492       .  S
C450        H455   1.087       .  S
C450        C451   1.360       .  D
C451       C4764   1.487       .  S
C456        C457   1.532       .  S
C456        C462   1.539       .  S
C456        C460   1.541       .  S
C456       C3324   1.537       .  S
C457        H464   1.087       .  S
C457        C458   1.364       .  D
C458        C459   1.545       .  S
C458       C4964   1.485       .  S
C459        C463   1.538       .  S
C459        C461   1.546       .  S
C459        H465   1.108       .  S
C460        H466   1.086       .  S
C460        C461   1.372       .  D
C461       C3293   1.497       .  S
C462        H467   1.079       .  S
C462        C463   1.356       .  D
C463       C4524   1.474       .  S
C468        C469   1.551       .  S
C468        C474   1.530       .  S
C468        C472   1.534       .  S
C468       C3284   1.540       .  S
C469        H476   1.081       .  S
C469        C470   1.374       .  D
C470        C471   1.547       .  S
C470       C3253   1.496       .  S
C471        C475   1.541       .  S
C471        C473   1.544       .  S
C471        H477   1.108       .  S
C472        H478   1.086       .  S
C472        C473   1.365       .  D
C473       C3224   1.487       .  S
C474        H479   1.087       .  S
C474        C475   1.361       .  D
C475       C3233   1.489       .  S
C480        C481   1.547       .  S
C480        C486   1.534       .  S
C480        C484   1.538       .  S
C480       C3193   1.533       .  S
C481        H488   1.081       .  S
C481        C482   1.368       .  D
C482        C483   1.539       .  S
C482       C3153   1.484       .  S
C483        C487   1.535       .  S
C483        C485   1.537       .  S
C483        H489   1.110       .  S
C484        H490   1.085       .  S
C484        C485   1.366       .  D
C485       C3173   1.483       .  S
C486        H491   1.087       .  S
C486        C487   1.361       .  D
C487       C3133   1.481       .  S
C492        C493   1.538       .  S
C492        C498   1.532       .  S
C492        C496   1.547       .  S
C492       C3113   1.541       .  S
C493        H500   1.086       .  S
C493        C494   1.368       .  D
C494        C495   1.543       .  S
C494       C3093   1.490       .  S
C495        C499   1.543       .  S
C495        C497   1.545       .  S
C495        H501   1.109       .  S
C496        H502   1.081       .  S
C496        C497   1.370       .  D
C497       C3084   1.492       .  S
C498        H503   1.087       .  S
C498        C499   1.361       .  D
C499       C5004   1.487       .  S
C504        C505   1.543       .  S
C504        C510   1.527       .  S
C504        C508   1.540       .  S
C504       C4824   1.534       .  S
C505        H512   1.083       .  S
C505        C506   1.368       .  D
C506        C507   1.545       .  S
C506       C4733   1.483       .  S
C507        C511   1.542       .  S
C507        C509   1.541       .  S
C507        H513   1.109       .  S
C508        H514   1.086       .  S
C508        C509   1.368       .  D
C509       C3053   1.489       .  S
C510        H515   1.087       .  S
C510        C511   1.359       .  D
C511       C3044   1.485       .  S
O516        C532   1.274       .  A
O516       Zn522   2.015       .  S
C517        O533   1.276       .  A
C517        O530   1.274       .  A
C517       C3304   1.489       .  S
O518        C531   1.277       .  A
O518       Cd525   2.082       .  S
O519        C537   1.270       .  A
O519       Cd528   2.050       .  S
O520        C534   1.275       .  A
O520       Cd524   2.078   1_554  S
O521        C532   1.273       .  A
O521       Cd524   2.063       .  S
Zn522       O533   2.033   1_556  S
Zn522       O535   2.006       .  S
Zn522       O527   1.947   1_556  S
O523        C534   1.274       .  A
O523       Cd528   2.067       .  S
Cd524       O526   2.067       .  S
Cd524       O527   1.996   1_556  S
Cd525       O529   2.097       .  S
Cd525       O538   2.091   1_556  S
Cd525       O527   2.017   1_556  S
O526        C536   1.275       .  A
O527       Cd528   1.991       .  S
Cd528       O530   2.073       .  S
O529        C536   1.277       .  A
C531        O535   1.273       .  A
C531       C3104   1.481       .  S
C532       C3184   1.476       .  S
C534       C3064   1.477       .  S
C536       C3264   1.493       .  S
C537        O538   1.279       .  A
C537       C3344   1.492       .  S
O539        C555   1.276       .  A
O539       Zn545   2.023       .  S
C540        O556   1.279       .  A
C540        O553   1.278       .  A
C540       C3573   1.487       .  S
O541        C554   1.278       .  A
O541       Cd548   2.087       .  S
O542        C560   1.278       .  A
O542       Cd551   2.096       .  S
O543        C557   1.278       .  A
O543       Cd547   2.089       .  S
O544        C555   1.277       .  A
O544       Cd547   2.083       .  S
Zn545       O556   2.037       .  S
Zn545       O558   2.019       .  S
Zn545       O550   1.927       .  S
O546        C557   1.277       .  A
O546       Cd551   2.084       .  S
Cd547       O549   2.065       .  S
Cd547       O550   1.977       .  S
Cd548       O552   2.086       .  S
Cd548       O561   2.058       .  S
Cd548       O550   1.990       .  S
O549        C559   1.276       .  A
O550       Cd551   1.988       .  S
Cd551       O553   2.079       .  S
O552        C559   1.278       .  A
C554        O558   1.276       .  A
C554       C3013   1.479       .  S
C555       C2993   1.487       .  S
C557       C2984   1.478       .  S
C559       C3244   1.482       .  S
C560        O561   1.274       .  A
C560       C3164   1.497       .  S
C562        C563   1.550       .  S
C562        C568   1.536       .  S
C562        C566   1.537       .  S
C562       C4084   1.537       .  S
C563        H570   1.082       .  S
C563        C564   1.366       .  D
C564        C565   1.538       .  S
C564       C2953   1.477       .  S
C565        C569   1.539       .  S
C565        C567   1.542       .  S
C565        H571   1.111       .  S
C566        H572   1.086       .  S
C566        C567   1.365       .  D
C567       C4504   1.485       .  S
C568        H573   1.086       .  S
C568        C569   1.362       .  D
C569       C2944   1.481       .  S
C574        C575   1.535       .  S
C574        C580   1.533       .  S
C574        C578   1.547       .  S
C574       C2913   1.535       .  S
C575        H582   1.086       .  S
C575        C576   1.368       .  D
C576        C577   1.547       .  S
C576       C2893   1.491       .  S
C577        C581   1.538       .  S
C577        C579   1.540       .  S
C577        H583   1.110       .  S
C578        H584   1.082       .  S
C578        C579   1.368       .  D
C579       C2873   1.482       .  S
C580        H585   1.087       .  S
C580        C581   1.360       .  D
C581       C3744   1.483       .  S
C586        C587   1.551       .  S
C586        C592   1.538       .  S
C586        C590   1.532       .  S
C586       C2853   1.539       .  S
C587        H594   1.081       .  S
C587        C588   1.371       .  D
C588        C589   1.544       .  S
C588       C2833   1.493       .  S
C589        C593   1.542       .  S
C589        C591   1.550       .  S
C589        H595   1.111       .  S
C590        H596   1.087       .  S
C590        C591   1.360       .  D
C591       C5104   1.485       .  S
C592        H597   1.087       .  S
C592        C593   1.364       .  D
C593       C3024   1.490       .  S
C598        C599   1.546       .  S
C598        C604   1.527       .  S
C598        C602   1.539       .  S
C598       C4793   1.538       .  S
C599        H606   1.082       .  S
C599        C600   1.368       .  D
C600        C601   1.548       .  S
C600       C2804   1.492       .  S
C601        C605   1.544       .  S
C601        C603   1.548       .  S
C601        H607   1.110       .  S
C602        H608   1.086       .  S
C602        C603   1.370       .  D
C603       C2813   1.494       .  S
C604        H609   1.088       .  S
C604        C605   1.357       .  D
C605       C5144   1.485       .  S
C610        C611   1.549       .  S
C610        C616   1.529       .  S
C610        C614   1.535       .  S
C610       C4693   1.536       .  S
C611        H618   1.081       .  S
C611        C612   1.373       .  D
C612        C613   1.547       .  S
C612       C3704   1.498       .  S
C613        C617   1.543       .  S
C613        C615   1.543       .  S
C613        H619   1.108       .  S
C614        H620   1.086       .  S
C614        C615   1.365       .  D
C615       C2773   1.486       .  S
C616        H621   1.087       .  S
C616        C617   1.359       .  D
C617       C4533   1.485       .  S
C622        C623   1.529       .  S
C622        C628   1.542       .  S
C622        C626   1.544       .  S
C622       C4564   1.539       .  S
C623        H630   1.086       .  S
C623        C624   1.365       .  D
C624        C625   1.542       .  S
C624       C3004   1.487       .  S
C625        C629   1.532       .  S
C625        C627   1.543       .  S
C625        H631   1.110       .  S
C626        H632   1.085       .  S
C626        C627   1.374       .  D
C627       C2764   1.487       .  S
C628        H633   1.083       .  S
C628        C629   1.359       .  D
C629       C2733   1.482       .  S
O634        C650   1.277       .  A
O634       Zn640   2.033       .  S
C635        O651   1.275       .  A
C635        O648   1.276       .  A
C635       C2784   1.487       .  S
O636        C649   1.277       .  A
O636       Cd643   2.091       .  S
O637        C655   1.274       .  A
O637       Cd646   2.054       .  S
O638        C652   1.274       .  A
O638       Cd642   2.078       .  S
O639        C650   1.275       .  A
O639       Cd642   2.068       .  S
Zn640       O651   2.032       .  S
Zn640       O653   2.026       .  S
Zn640       O645   1.954       .  S
O641        C652   1.277       .  A
O641       Cd646   2.088       .  S
Cd642       O644   2.066       .  S
Cd642       O645   1.994       .  S
Cd643       O647   2.107       .  S
Cd643       O656   2.089       .  S
Cd643       O645   2.019       .  S
O644        C654   1.272       .  A
O645       Cd646   2.001       .  S
Cd646       O648   2.079       .  S
O647        C654   1.280       .  A
C649        O653   1.276       .  A
C649       C2904   1.491       .  S
C650       C2753   1.485       .  S
C652       C2824   1.497       .  S
C654       C2844   1.502       .  S
C655        O656   1.277       .  A
C655       C2964   1.486       .  S
O657        C673   1.278       .  A
O657       Zn663   2.031       .  S
C658        O674   1.277       .  A
C658        O671   1.275       .  A
C658       C3073   1.492       .  S
O659        C672   1.276       .  A
O659       Cd666   2.073       .  S
O660        C678   1.272       .  A
O660       Cd669   2.043       .  S
O661        C675   1.274       .  A
O661       Cd665   2.067       .  S
O662        C673   1.277       .  A
O662       Cd665   2.068       .  S
Zn663       O674   2.032       .  S
Zn663       O676   2.011       .  S
Zn663       O668   1.919       .  S
O664        C675   1.276       .  A
O664       Cd669   2.071       .  S
Cd665       O667   2.081       .  S
Cd665       O668   1.984       .  S
Cd666       O670   2.061       .  S
Cd666       O679   2.077       .  S
Cd666       O668   1.988       .  S
O667        C677   1.275       .  A
O668       Cd669   1.973       .  S
Cd669       O671   2.079       .  S
O670        C677   1.274       .  A
C672        O676   1.274       .  A
C672       C3144   1.474       .  S
C673       C2864   1.486       .  S
C675       C2673   1.478       .  S
C677       C2693   1.490       .  S
C678        O679   1.276       .  A
C678       C2713   1.461       .  S
O680        C696   1.275       .  A
O680       Zn686   2.011   1_565  S
C681        O697   1.274       .  A
C681        O694   1.276       .  A
C681       C2593   1.487       .  S
O682        C695   1.279       .  A
O682       Cd689   2.105   1_565  S
O683        C701   1.275       .  A
O683       Cd692   2.061       .  S
O684        C698   1.278       .  A
O684       Cd688   2.078   1_545  S
O685        C696   1.277       .  A
O685       Cd688   2.081       .  S
Zn686       O697   2.016       .  S
Zn686       O699   1.983   1_545  S
Zn686       O691   1.915       .  S
O687        C698   1.278       .  A
O687       Cd692   2.084       .  S
Cd688       O690   2.111       .  S
Cd688       O691   1.997   1_565  S
Cd689       O693   2.070   1_545  S
Cd689       O702   2.095       .  S
Cd689       O691   1.993       .  S
O690        C700   1.281       .  A
O691       Cd692   1.986       .  S
Cd692       O694   2.092       .  S
O693        C700   1.277       .  A
C695        O699   1.272       .  A
C695       C2633   1.495       .  S
C696       C2584   1.471       .  S
C698       C3913   1.488       .  S
C700       C2613   1.500       .  S
C701        O702   1.280       .  A
C701       C2664   1.484       .  S
O703        C719   1.273       .  A
O703       Zn709   2.012   1_556  S
C704        O720   1.274       .  A
C704        O717   1.276       .  A
C704       C2473   1.471       .  S
O705        C718   1.280       .  A
O705       Cd712   2.095       .  S
O706        C724   1.278       .  A
O706       Cd715   2.098       .  S
O707        C721   1.276       .  A
O707       Cd711   2.066       .  S
O708        C719   1.275       .  A
O708       Cd711   2.088       .  S
Zn709       O720   2.010       .  S
Zn709       O722   1.990       .  S
Zn709       O714   1.910   1_554  S
O710        C721   1.277       .  A
O710       Cd715   2.066   1_556  S
Cd711       O713   2.059       .  S
Cd711       O714   1.983       .  S
Cd712       O716   2.090   1_554  S
Cd712       O725   2.068       .  S
Cd712       O714   1.990   1_554  S
O713        C723   1.276       .  A
O714       Cd715   1.994   1_556  S
Cd715       O717   2.076       .  S
O716        C723   1.279       .  A
C718        O722   1.272       .  A
C718       C2564   1.481       .  S
C719       C2524   1.492       .  S
C721       C3204   1.477       .  S
C723       C2533   1.484       .  S
C724        O725   1.274       .  A
C724       C2493   1.475       .  S
C726        C727   1.535       .  S
C726        C732   1.544       .  S
C726        C730   1.535       .  S
C726       C2453   1.536       .  S
C727        H734   1.086       .  S
C727        C728   1.368       .  D
C728        C729   1.540       .  S
C728       C2433   1.483       .  S
C729        C733   1.535       .  S
C729        C731   1.544       .  S
C729        H735   1.111       .  S
C730        H736   1.085       .  S
C730        C731   1.366       .  D
C731       C2704   1.480       .  S
C732        H737   1.083       .  S
C732        C733   1.360       .  D
C733       C2544   1.482       .  S
C738        C739   1.534       .  S
C738        C744   1.533       .  S
C738        C742   1.547       .  S
C738       C4944   1.535       .  S
C739        H746   1.086       .  S
C739        C740   1.365       .  D
C740        C741   1.541       .  S
C740       C2393   1.484       .  S
C741        C745   1.538       .  S
C741        C743   1.540       .  S
C741        H747   1.111       .  S
C742        H748   1.081       .  S
C742        C743   1.368       .  D
C743       C2413   1.482       .  S
C744        H749   1.087       .  S
C744        C745   1.362       .  D
C745       C2724   1.480       .  S
C750        C751   1.537       .  S
C750        C756   1.544       .  S
C750        C754   1.535       .  S
C750       C2373   1.540       .  S
C751        H758   1.086       .  S
C751        C752   1.372       .  D
C752        C753   1.550       .  S
C752       C2504   1.499       .  S
C753        C757   1.537       .  S
C753        C755   1.539       .  S
C753        H759   1.109       .  S
C754        H760   1.086       .  S
C754        C755   1.365       .  D
C755       C2364   1.483       .  S
C756        H761   1.079       .  S
C756        C757   1.359       .  D
C757       C2644   1.478       .  S
C762        C763   1.552       .  S
C762        C768   1.534       .  S
C762        C766   1.530       .  S
C762       C2333   1.537       .  S
C763        H770   1.082       .  S
C763        C764   1.372       .  D
C764        C765   1.539       .  S
C764       C2313   1.488       .  S
C765        C769   1.542       .  S
C765        C767   1.549       .  S
C765        H771   1.110       .  S
C766        H772   1.087       .  S
C766        C767   1.361       .  D
C767       C2604   1.485       .  S
C768        H773   1.086       .  S
C768        C769   1.363       .  D
C769       C4773   1.488       .  S
C774        C775   1.543       .  S
C774        C780   1.543       .  S
C774        C778   1.533       .  S
C774       C2293   1.538       .  S
C775        H782   1.084       .  S
C775        C776   1.372       .  D
C776        C777   1.542       .  S
C776       C2284   1.487       .  S
C777        C781   1.533       .  S
C777        C779   1.540       .  S
C777        H783   1.111       .  S
C778        H784   1.086       .  S
C778        C779   1.365       .  D
C779       C2253   1.484       .  S
C780        H785   1.083       .  S
C780        C781   1.358       .  D
C781       C2244   1.481       .  S
C786        C787   1.534       .  S
C786        C792   1.539       .  S
C786        C790   1.549       .  S
C786       C4224   1.539       .  S
C787        H794   1.086       .  S
C787        C788   1.365       .  D
C788        C789   1.543       .  S
C788       C4724   1.487       .  S
C789        C793   1.542       .  S
C789        C791   1.540       .  S
C789        H795   1.111       .  S
C790        H796   1.081       .  S
C790        C791   1.366       .  D
C791       C2224   1.480       .  S
C792        H797   1.086       .  S
C792        C793   1.365       .  D
C793       C2193   1.492       .  S
O798        C814   1.275       .  A
O798       Zn804   2.026   1_565  S
C799        O815   1.274       .  A
C799        O812   1.275       .  A
C799       C2273   1.479       .  S
O800        C813   1.277   1_554  A
O800       Cd807   2.097       .  S
O801        C819   1.273       .  A
O801       Cd810   2.061       .  S
O802        C816   1.275       .  A
O802       Cd806   2.079       .  S
O803        C814   1.274       .  A
O803       Cd806   2.070   1_566  S
Zn804       O815   2.014       .  S
Zn804       O817   2.000   1_545  S
Zn804       O809   1.943   1_556  S
O805        C816   1.275       .  A
O805       Cd810   2.076       .  S
Cd806       O808   2.057   1_545  S
Cd806       O809   1.998       .  S
Cd807       O811   2.091       .  S
Cd807       O820   2.099   1_565  S
Cd807       O809   2.019   1_565  S
O808        C818   1.274       .  A
O809       Cd810   1.997       .  S
Cd810       O812   2.073   1_554  S
O811        C818   1.278       .  A
C813        O817   1.273       .  A
C813       C2424   1.491       .  S
C814       C2444   1.484       .  S
C816       C2324   1.482       .  S
C818       C2353   1.484       .  S
C819        O820   1.279       .  A
C819       C2213   1.493       .  S
O821        C837   1.277       .  A
O821       Zn827   2.036       .  S
C822        O838   1.275       .  A
C822        O835   1.275       .  A
C822       C2113   1.490       .  S
O823        C836   1.279       .  A
O823       Cd830   2.089       .  S
O824        C842   1.275       .  A
O824       Cd833   2.061       .  S
O825        C839   1.274       .  A
O825       Cd829   2.067   1_455  S
O826        C837   1.278       .  A
O826       Cd829   2.089       .  S
Zn827       O838   2.012   1_655  S
Zn827       O840   2.001       .  S
Zn827       O832   1.926       .  S
O828        C839   1.278       .  A
O828       Cd833   2.074       .  S
Cd829       O831   2.102       .  S
Cd829       O832   1.989       .  S
Cd830       O834   2.072       .  S
Cd830       O843   2.096   1_655  S
Cd830       O832   1.991       .  S
O831        C841   1.281       .  A
O832       Cd833   1.979   1_655  S
Cd833       O835   2.078       .  S
O834        C841   1.274       .  A
C836        O840   1.274       .  A
C836       C2153   1.478       .  S
C837       C4064   1.483       .  S
C839       C3393   1.491       .  S
C841       C2144   1.500       .  S
C842        O843   1.278       .  A
C842       C2173   1.485       .  S
O844        C860   1.277       .  A
O844       Zn850   2.019       .  S
C845        O861   1.275       .  A
C845        O858   1.276       .  A
C845       C2073   1.487       .  S
O846        C859   1.277       .  A
O846       Cd853   2.081       .  S
O847        C865   1.278       .  A
O847       Cd856   2.068       .  S
O848        C862   1.276       .  A
O848       Cd852   2.078   1_554  S
O849        C860   1.278       .  A
O849       Cd852   2.084       .  S
Zn850       O861   2.018   1_556  S
Zn850       O863   2.012       .  S
Zn850       O855   1.917       .  S
O851        C862   1.280       .  A
O851       Cd856   2.092       .  S
Cd852       O854   2.108       .  S
Cd852       O855   1.995       .  S
Cd853       O857   2.044       .  S
Cd853       O866   2.089   1_556  S
Cd853       O855   1.982       .  S
O854        C864   1.281       .  A
O855       Cd856   1.981   1_556  S
Cd856       O858   2.085       .  S
O857        C864   1.271       .  A
C859        O863   1.274       .  A
C859       C2093   1.475       .  S
C860       C2053   1.485       .  S
C862       C3364   1.487       .  S
C864       C2264   1.489       .  S
C865        O866   1.278       .  A
C865       C2204   1.493       .  S
O867        C883   1.278       .  A
O867       Zn873   2.030       .  S
C868        O884   1.273       .  A
C868        O881   1.276       .  A
C868       C3784   1.490       .  S
O869        C882   1.279       .  A
O869       Cd876   2.092       .  S
O870        C888   1.274       .  A
O870       Cd879   2.051       .  S
O871        C885   1.278       .  A
O871       Cd875   2.075   1_565  S
O872        C883   1.276       .  A
O872       Cd875   2.073       .  S
Zn873       O884   2.015   1_545  S
Zn873       O886   1.997       .  S
Zn873       O878   1.905       .  S
O874        C885   1.276       .  A
O874       Cd879   2.065       .  S
Cd875       O877   2.093       .  S
Cd875       O878   1.981       .  S
Cd876       O880   2.058       .  S
Cd876       O889   2.092   1_545  S
Cd876       O878   1.985       .  S
O877        C887   1.278       .  A
O878       Cd879   1.969   1_545  S
Cd879       O881   2.082       .  S
O880        C887   1.273       .  A
C882        O886   1.275       .  A
C882       C3844   1.489       .  S
C883       C2004   1.484       .  S
C885       C2464   1.481       .  S
C887       C2013   1.475       .  S
C888        O889   1.278       .  A
C888       C2044   1.485       .  S
C890        C891   1.552       .  S
C890        C896   1.535       .  S
C890        C894   1.538       .  S
C890       C1973   1.537       .  S
C891        H898   1.081       .  S
C891        C892   1.369       .  D
C892        C893   1.536       .  S
C892       C1953   1.485       .  S
C893        C897   1.529       .  S
C893        C895   1.540       .  S
C893        H899   1.111       .  S
C894        H900   1.086       .  S
C894        C895   1.367       .  D
C895       C2024   1.482       .  S
C896        H901   1.087       .  S
C896        C897   1.359       .  D
C897       C1944   1.469       .  S
C902        C903   1.535       .  S
C902        C908   1.525       .  S
C902        C906   1.545       .  S
C902       C2573   1.537       .  S
C903        H910   1.085       .  S
C903        C904   1.375       .  D
C904        C905   1.552       .  S
C904       C1913   1.514       .  S
C905        C909   1.549       .  S
C905        C907   1.543       .  S
C905        H911   1.099       .  S
C906        H912   1.079       .  S
C906        C907   1.369       .  D
C907       C2124   1.497       .  S
C908        H913   1.087       .  S
C908        C909   1.355       .  D
C909       C2553   1.477       .  S
C914        C915   1.551       .  S
C914        C920   1.531       .  S
C914        C918   1.534       .  S
C914       C4344   1.538       .  S
C915        H922   1.080       .  S
C915        C916   1.377       .  D
C916        C917   1.546       .  S
C916       C1893   1.504       .  S
C917        C921   1.538       .  S
C917        C919   1.542       .  S
C917        H923   1.104       .  S
C918        H924   1.086       .  S
C918        C919   1.365       .  D
C919       C2084   1.493       .  S
C920        H925   1.087       .  S
C920        C921   1.358       .  D
C921       C4304   1.475       .  S
C926        C927   1.530       .  S
C926        C932   1.541       .  S
C926        C930   1.546       .  S
C926       C4924   1.545       .  S
C927        H934   1.086       .  S
C927        C928   1.362       .  D
C928        C929   1.551       .  S
C928       C4264   1.484       .  S
C929        C933   1.538       .  S
C929        C931   1.545       .  S
C929        H935   1.108       .  S
C930        H936   1.085       .  S
C930        C931   1.376       .  D
C931       C1873   1.500       .  S
C932        H937   1.084       .  S
C932        C933   1.363       .  D
C933       C2164   1.489       .  S
C938        C939   1.544       .  S
C938        C944   1.545       .  S
C938        C942   1.540       .  S
C938       C3624   1.545       .  S
C939        H946   1.086       .  S
C939        C940   1.371       .  D
C940        C941   1.543       .  S
C940       C2513   1.488       .  S
C941        C945   1.530       .  S
C941        C943   1.540       .  S
C941        H947   1.111       .  S
C942        H948   1.086       .  S
C942        C943   1.369       .  D
C943       C1864   1.491       .  S
C944        H949   1.082       .  S
C944        C945   1.358       .  D
C945       C2033   1.475       .  S
C950        C951   1.543       .  S
C950        C956   1.533       .  S
C950        C954   1.535       .  S
C950       C1833   1.533       .  S
C951        H958   1.081       .  S
C951        C952   1.366       .  D
C952        C953   1.546       .  S
C952       C1793   1.486       .  S
C953        C957   1.547       .  S
C953        C955   1.545       .  S
C953        H959   1.109       .  S
C954        H960   1.086       .  S
C954        C955   1.366       .  D
C955       C1813   1.491       .  S
C956        H961   1.087       .  S
C956        C957   1.361       .  D
C957       C2104   1.491       .  S
O962        C978   1.273       .  A
O962       Zn968   2.032   1_554  S
C963        O979   1.274       .  A
C963        O976   1.276       .  A
C963       C1964   1.481       .  S
O964        C977   1.278       .  A
O964       Cd971   2.093   1_545  S
O965        C983   1.278       .  A
O965       Cd974   2.086   1_565  S
O966        C980   1.273   1_545  A
O966       Cd970   2.075   1_455  S
O967        C978   1.276       .  A
O967       Cd970   2.078       .  S
Zn968       O979   2.015   1_655  S
Zn968       O981   2.012       .  S
Zn968       O973   1.953   1_655  S
O969        C980   1.278       .  A
O969       Cd974   2.087   1_564  S
Cd970       O972   2.070   1_545  S
Cd970       O973   2.001   1_654  S
Cd971       O975   2.095       .  S
Cd971       O984   2.103   1_655  S
Cd971       O973   2.018   1_665  S
O972        C982   1.275       .  A
O973       Cd974   2.007       .  S
Cd974       O976   2.079       .  S
O975        C982   1.278   1_556  A
C977        O981   1.274       .  A
C977       C1824   1.483       .  S
C978       C1904   1.497       .  S
C980       C1924   1.497       .  S
C982       C1884   1.486       .  S
C983        O984   1.279       .  A
C983       C1853   1.498       .  S
O985       C1001   1.277       .  A
O985       Zn991   2.012       .  S
C986       O1002   1.275       .  A
C986        O999   1.275       .  A
C986       C1753   1.489       .  S
O987       C1000   1.278       .  A
O987       Cd994   2.089       .  S
O988       C1006   1.273       .  A
O988       Cd997   2.041       .  S
O989       C1003   1.275       .  A
O989       Cd993   2.068   1_554  S
O990       C1001   1.277       .  A
O990       Cd993   2.072       .  S
Zn991      O1002   2.034   1_556  S
Zn991      O1004   1.991       .  S
Zn991       O996   1.918       .  S
O992       C1003   1.277       .  A
O992       Cd997   2.076       .  S
Cd993       O995   2.087       .  S
Cd993       O996   1.987       .  S
Cd994       O998   2.062       .  S
Cd994      O1007   2.092   1_556  S
Cd994       O996   1.990       .  S
O995       C1005   1.276       .  A
O996       Cd997   1.969   1_556  S
Cd997       O999   2.070       .  S
O998       C1005   1.275       .  A
C1000      O1004   1.271       .  A
C1000      C1773   1.472       .  S
C1001      C1984   1.478       .  S
C1003      C2344   1.479       .  S
C1005      C3213   1.491       .  S
C1006      O1007   1.279       .  A
C1006      C3033   1.476       .  S
O1008      C1024   1.274       .  A
O1008     Zn1014   2.001       .  S
C1009      O1025   1.272       .  A
C1009      O1022   1.276       .  A
C1009      C3504   1.483       .  S
O1010      C1023   1.278       .  A
O1010     Cd1017   2.087       .  S
O1011      C1029   1.275       .  A
O1011     Cd1020   2.055       .  S
O1012      C1026   1.277       .  A
O1012     Cd1016   2.081       .  S
O1013      C1024   1.277       .  A
O1013     Cd1016   2.083       .  S
Zn1014     O1025   2.009       .  S
Zn1014     O1027   1.993       .  S
Zn1014     O1019   1.910       .  S
O1015      C1026   1.279       .  A
O1015     Cd1020   2.081       .  S
Cd1016     O1018   2.106       .  S
Cd1016     O1019   1.993       .  S
Cd1017     O1021   2.068       .  S
Cd1017     O1030   2.088       .  S
Cd1017     O1019   1.987       .  S
O1018      C1028   1.280       .  A
O1019     Cd1020   1.977       .  S
Cd1020     O1022   2.087       .  S
O1021      C1028   1.276       .  A
C1023      O1027   1.272       .  A
C1023      C3424   1.478       .  S
C1024      C2924   1.472       .  S
C1026      C3124   1.487       .  S
C1028      C1713   1.494       .  S
C1029      O1030   1.278       .  A
C1029      C1733   1.471       .  S
O1031      C1047   1.276       .  A
O1031     Zn1037   2.034   1_655  S
C1032      O1048   1.278       .  A
C1032      O1045   1.276       .  A
C1032      C3873   1.493       .  S
O1033      C1046   1.277       .  A
O1033     Cd1040   2.078       .  S
O1034      C1052   1.279       .  A
O1034     Cd1043   2.107       .  S
O1035      C1049   1.277       .  A
O1035     Cd1039   2.079       .  S
O1036      C1047   1.278       .  A
O1036     Cd1039   2.090       .  S
Zn1037     O1048   2.027       .  S
Zn1037     O1050   2.007       .  S
Zn1037     O1042   1.932   1_455  S
O1038      C1049   1.279       .  A
O1038     Cd1043   2.087   1_655  S
Cd1039     O1041   2.058       .  S
Cd1039     O1042   1.977       .  S
Cd1040     O1044   2.086   1_455  S
Cd1040     O1053   2.057       .  S
Cd1040     O1042   1.995   1_455  S
O1041      C1051   1.274       .  A
O1042     Cd1043   1.996   1_655  S
Cd1043     O1045   2.075       .  S
O1044      C1051   1.277       .  A
C1046      O1050   1.274       .  A
C1046      C1933   1.474       .  S
C1047      C1804   1.486       .  S
C1049      C3464   1.487       .  S
C1051      C1704   1.475       .  S
C1052      O1053   1.274       .  A
C1052      C1673   1.499       .  S
C1054      C1055   1.536       .  S
C1054      C1060   1.546       .  S
C1054      C1058   1.536       .  S
C1054      C2064   1.543       .  S
C1055      H1062   1.086       .  S
C1055      C1056   1.367       .  D
C1056      C1057   1.547       .  S
C1056      C1664   1.487       .  S
C1057      C1061   1.537       .  S
C1057      C1059   1.544       .  S
C1057      H1063   1.111       .  S
C1058      H1064   1.086       .  S
C1058      C1059   1.366       .  D
C1059      C1724   1.487       .  S
C1060      H1065   1.079       .  S
C1060      C1061   1.363       .  D
C1061      C1693   1.487       .  S
C1066      C1067   1.537       .  S
C1066      C1072   1.529       .  S
C1066      C1070   1.554       .  S
C1066      C2973   1.543       .  S
C1067      H1074   1.086       .  S
C1067      C1068   1.368       .  D
C1068      C1069   1.544       .  S
C1068      C1684   1.492       .  S
C1069      C1073   1.538       .  S
C1069      C1071   1.543       .  S
C1069      H1075   1.108       .  S
C1070      H1076   1.081       .  S
C1070      C1071   1.375       .  D
C1071      C1633   1.499       .  S
C1072      H1077   1.087       .  S
C1072      C1073   1.358       .  D
C1073      C1784   1.479       .  S
C1078      C1079   1.546       .  S
C1078      C1084   1.529       .  S
C1078      C1082   1.530       .  S
C1078      C3593   1.536       .  S
C1079      H1086   1.079       .  S
C1079      C1080   1.378       .  D
C1080      C1081   1.551       .  S
C1080      C4984   1.515       .  S
C1081      C1085   1.543       .  S
C1081      C1083   1.552       .  S
C1081      H1087   1.097       .  S
C1082      H1088   1.086       .  S
C1082      C1083   1.361       .  D
C1083      C1613   1.478       .  S
C1084      H1089   1.087       .  S
C1084      C1085   1.360       .  D
C1085      C1744   1.497       .  S
C1090      C1091   1.544       .  S
C1090      C1096   1.540       .  S
C1090      C1094   1.532       .  S
C1090      C4324   1.542       .  S
C1091      H1098   1.086       .  S
C1091      C1092   1.376       .  D
C1092      C1093   1.545       .  S
C1092      C1604   1.500       .  S
C1093      C1097   1.535       .  S
C1093      C1095   1.544       .  S
C1093      H1099   1.108       .  S
C1094      H1100   1.086       .  S
C1094      C1095   1.366       .  D
C1095      C1764   1.490       .  S
C1096      H1101   1.081       .  S
C1096      C1097   1.354       .  D
C1097      C4904   1.474       .  S
C1102      C1103   1.542       .  S
C1102      C1108   1.529       .  S
C1102      C1106   1.545       .  S
C1102      C4444   1.538       .  S
C1103      H1110   1.085       .  S
C1103      C1104   1.373       .  D
C1104      C1105   1.547       .  S
C1104      C1584   1.497       .  S
C1105      C1109   1.542       .  S
C1105      C1107   1.543       .  S
C1105      H1111   1.109       .  S
C1106      H1112   1.082       .  S
C1106      C1107   1.364       .  D
C1107      C2133   1.488       .  S
C1108      H1113   1.087       .  S
C1108      C1109   1.358       .  D
C1109      C5024   1.481       .  S
C1114      C1115   1.548       .  S
C1114      C1120   1.531       .  S
C1114      C1118   1.534       .  S
C1114      C2484   1.536       .  S
C1115      H1122   1.081       .  S
C1115      C1116   1.372       .  D
C1116      C1117   1.546       .  S
C1116      C4844   1.497       .  S
C1117      C1121   1.545       .  S
C1117      C1119   1.543       .  S
C1117      H1123   1.109       .  S
C1118      H1124   1.086       .  S
C1118      C1119   1.365       .  D
C1119      C1564   1.486       .  S
C1120      H1125   1.087       .  S
C1120      C1121   1.358       .  D
C1121      C2184   1.484       .  S
O1126      C1142   1.277       .  A
O1126     Zn1132   2.035   1_455  S
C1127      O1143   1.276       .  A
C1127      O1140   1.275       .  A
C1127      C1624   1.482       .  S
O1128      C1141   1.277       .  A
O1128     Cd1135   2.080       .  S
O1129      C1147   1.272       .  A
O1129     Cd1138   2.057       .  S
O1130      C1144   1.273       .  A
O1130     Cd1134   2.061       .  S
O1131      C1142   1.272       .  A
O1131     Cd1134   2.057   1_554  S
Zn1132     O1143   2.041   1_554  S
Zn1132     O1145   2.021       .  S
Zn1132     O1137   1.953   1_554  S
O1133      C1144   1.277       .  A
O1133     Cd1138   2.086   1_455  S
Cd1134     O1136   2.058   1_556  S
Cd1134     O1137   1.992   1_455  S
Cd1135     O1139   2.092   1_655  S
Cd1135     O1148   2.092   1_554  S
Cd1135     O1137   2.017   1_554  S
O1136      C1146   1.272       .  A
O1137     Cd1138   1.997       .  S
Cd1138     O1140   2.072       .  S
O1139      C1146   1.277       .  A
C1141      O1145   1.275       .  A
C1141      C1573   1.486       .  S
C1142      C1553   1.480       .  S
C1144      C1644   1.483       .  S
C1146      C1593   1.481       .  S
C1147      O1148   1.279       .  A
C1147      C1653   1.492       .  S
O1149      C1165   1.276       .  A
O1149     Zn1155   2.041       .  S
C1150      O1166   1.278       .  A
C1150      O1163   1.276       .  A
C1150      C2384   1.480       .  S
O1151      C1164   1.276       .  A
O1151     Cd1158   2.076       .  S
O1152      C1170   1.279       .  A
O1152     Cd1161   2.099       .  S
O1153      C1167   1.277       .  A
O1153     Cd1157   2.067       .  S
O1154      C1165   1.274       .  A
O1154     Cd1157   2.073       .  S
Zn1155     O1166   2.030       .  S
Zn1155     O1168   2.019       .  S
Zn1155     O1160   1.924       .  S
O1156      C1167   1.273       .  A
O1156     Cd1161   2.061       .  S
Cd1157     O1159   2.050       .  S
Cd1157     O1160   1.975       .  S
Cd1158     O1162   2.088       .  S
Cd1158     O1171   2.068       .  S
Cd1158     O1160   1.981       .  S
O1159      C1169   1.273       .  A
O1160     Cd1161   1.991       .  S
Cd1161     O1163   2.068       .  S
O1162      C1169   1.278       .  A
C1164      O1168   1.277       .  A
C1164      C1544   1.491       .  S
C1165      C1513   1.484       .  S
C1167      C3313   1.484       .  S
C1169      C2933   1.478       .  S
C1170      O1171   1.274       .  A
C1170      C2793   1.493       .  S
O1172      C1188   1.277       .  A
O1172     Zn1178   2.011       .  S
C1173      O1189   1.274       .  A
C1173      O1186   1.274       .  A
C1173      C1473   1.489       .  S
O1174      C1187   1.275       .  A
O1174     Cd1181   2.072       .  S
O1175      C1193   1.274       .  A
O1175     Cd1184   2.058       .  S
O1176      C1190   1.278       .  A
O1176     Cd1180   2.084       .  S
O1177      C1188   1.276       .  A
O1177     Cd1180   2.078       .  S
Zn1178     O1189   2.019       .  S
Zn1178     O1191   2.007       .  S
Zn1178     O1183   1.922       .  S
O1179      C1190   1.277       .  A
O1179     Cd1184   2.083       .  S
Cd1180     O1182   2.104       .  S
Cd1180     O1183   1.993       .  S
Cd1181     O1185   2.054       .  S
Cd1181     O1194   2.068       .  S
Cd1181     O1183   1.985       .  S
O1182      C1192   1.280       .  A
O1183     Cd1184   1.982       .  S
Cd1184     O1186   2.069       .  S
O1185      C1192   1.272       .  A
C1187      O1191   1.273       .  A
C1187      C1493   1.472       .  S
C1188      C2304   1.482       .  S
C1190      C3273   1.483       .  S
C1192      C2884   1.484       .  S
C1193      O1194   1.276       .  A
C1193      C2744   1.476       .  S
O1195      C1211   1.274       .  A
O1195     Zn1201   2.005   1_565  S
C1196      O1212   1.275       .  A
C1196      O1209   1.275       .  A
C1196      C1844   1.469       .  S
O1197      C1210   1.280       .  A
O1197     Cd1204   2.096       .  S
O1198      C1216   1.278       .  A
O1198     Cd1207   2.087       .  S
O1199      C1213   1.279       .  A
O1199     Cd1203   2.079       .  S
O1200      C1211   1.276       .  A
O1200     Cd1203   2.088       .  S
Zn1201     O1212   2.011       .  S
Zn1201     O1214   2.000       .  S
Zn1201     O1206   1.899       .  S
O1202      C1213   1.276   1_545  A
O1202     Cd1207   2.070       .  S
Cd1203     O1205   2.055       .  S
Cd1203     O1206   1.972   1_565  S
Cd1204     O1208   2.092   1_545  S
Cd1204     O1217   2.058       .  S
Cd1204     O1206   1.981       .  S
O1205      C1215   1.274       .  A
O1206     Cd1207   1.984       .  S
Cd1207     O1209   2.069       .  S
O1208      C1215   1.280       .  A
C1210      O1214   1.274       .  A
C1210      C2233   1.483       .  S
C1211      C2404   1.490       .  S
C1213      C3973   1.484       .  S
C1215      C1464   1.479       .  S
C1216      O1217   1.273       .  A
C1216      C1444   1.486       .  S
C1218      C1219   1.542       .  S
C1218      C1224   1.545       .  S
C1218      C1222   1.537       .  S
C1218      C1993   1.543       .  S
C1219      H1226   1.085       .  S
C1219      C1220   1.370       .  D
C1220      C1221   1.538       .  S
C1220      C1413   1.486       .  S
C1221      C1225   1.530       .  S
C1221      C1223   1.540       .  S
C1221      H1227   1.110       .  S
C1222      H1228   1.086       .  S
C1222      C1223   1.369       .  D
C1223      C1484   1.487       .  S
C1224      H1229   1.080       .  S
C1224      C1225   1.359       .  D
C1225      C4633   1.476       .  S
C1230      C1231   1.536       .  S
C1230      C1236   1.530       .  S
C1230      C1234   1.547       .  S
C1230      C2684   1.538       .  S
C1231      H1238   1.086       .  S
C1231      C1232   1.365       .  D
C1232      C1233   1.551       .  S
C1232      C1393   1.485       .  S
C1233      C1237   1.539       .  S
C1233      C1235   1.548       .  S
C1233      H1239   1.109       .  S
C1234      H1240   1.080       .  S
C1234      C1235   1.371       .  D
C1235      C4124   1.498       .  S
C1236      H1241   1.087       .  S
C1236      C1237   1.359       .  D
C1237      C1453   1.481       .  S
C1242      C1243   1.529       .  S
C1242      C1248   1.535       .  S
C1242      C1246   1.555       .  S
C1242      C3684   1.542       .  S
C1243      H1250   1.087       .  S
C1243      C1244   1.359       .  D
C1244      C1245   1.549       .  S
C1244      C1433   1.480       .  S
C1245      C1249   1.538       .  S
C1245      C1247   1.544       .  S
C1245      H1251   1.104       .  S
C1246      H1252   1.081       .  S
C1246      C1247   1.379       .  D
C1247      C1373   1.507       .  S
C1248      H1253   1.087       .  S
C1248      C1249   1.364       .  D
C1249      C1504   1.489       .  S
C1254      C1255   1.551       .  S
C1254      C1260   1.535       .  S
C1254      C1258   1.537       .  S
C1254      C5033   1.543       .  S
C1255      H1262   1.081       .  S
C1255      C1256   1.373       .  D
C1256      C1257   1.545       .  S
C1256      C1353   1.495       .  S
C1257      C1261   1.540       .  S
C1257      C1259   1.547       .  S
C1257      H1263   1.109       .  S
C1258      H1264   1.086       .  S
C1258      C1259   1.365       .  D
C1259      C2624   1.492       .  S
C1260      H1265   1.087       .  S
C1260      C1261   1.361       .  D
C1261      C1533   1.485       .  S
C1266      C1267   1.540       .  S
C1266      C1272   1.537       .  S
C1266      C1270   1.540       .  S
C1266      C4204   1.543       .  S
C1267      H1274   1.082       .  S
C1267      C1268   1.366       .  D
C1268      C1269   1.554       .  S
C1268      C1524   1.494       .  S
C1269      C1273   1.536       .  S
C1269      C1271   1.552       .  S
C1269      H1275   1.110       .  S
C1270      H1276   1.084       .  S
C1270      C1271   1.372       .  D
C1271      C1333   1.507       .  S
C1272      H1277   1.086       .  S
C1272      C1273   1.360       .  D
C1273      C4184   1.478       .  S
C1278      C1279   1.537       .  S
C1278      C1284   1.545       .  S
C1278      C1282   1.534       .  S
C1278      C4684   1.543       .  S
C1279      H1286   1.085       .  S
C1279      C1280   1.369       .  D
C1280      C1281   1.550       .  S
C1280      C4604   1.492       .  S
C1281      C1285   1.540       .  S
C1281      C1283   1.543       .  S
C1281      H1287   1.110       .  S
C1282      H1288   1.086       .  S
C1282      C1283   1.367       .  D
C1283      C1313   1.488       .  S
C1284      H1289   1.082       .  S
C1284      C1285   1.363       .  D
C1285      C2653   1.492       .  S
O1290      C1306   1.275       .  A
O1290     Zn1296   2.030       .  S
C1291      O1307   1.277       .  A
C1291      O1304   1.276       .  A
C1291      C1364   1.486       .  S
O1292      C1305   1.278   1_545  A
O1292     Cd1299   2.097       .  S
O1293      C1311   1.275       .  A
O1293     Cd1302   2.070       .  S
O1294      C1308   1.275       .  A
O1294     Cd1298   2.074       .  S
O1295      C1306   1.277       .  A
O1295     Cd1298   2.091   1_565  S
Zn1296     O1307   2.039       .  S
Zn1296     O1309   2.015       .  S
Zn1296     O1301   1.952   1_565  S
O1297      C1308   1.275       .  A
O1297     Cd1302   2.074       .  S
Cd1298     O1300   2.080       .  S
Cd1298     O1301   2.010       .  S
Cd1299     O1303   2.093       .  S
Cd1299     O1312   2.091       .  S
Cd1299     O1301   2.019       .  S
O1300      C1310   1.276       .  A
O1301     Cd1302   2.004       .  S
Cd1302     O1304   2.080   1_545  S
O1303      C1310   1.278       .  A
C1305      O1309   1.274       .  A
C1305      C1344   1.486       .  S
C1306      C1404   1.480       .  S
C1308      C1424   1.483       .  S
C1310      C1384   1.482       .  S
C1311      O1312   1.277       .  A
C1311      C1324   1.487       .  S
C1313      C1314   1.414       .  A
C1313      C1318   1.404       .  A
C1314      C1315   1.400       .  A
C1314     Br1330   1.921       .  S
C1315      C1316   1.400       .  A
C1315      H1319   1.084       .  S
C1316      C1320   1.482       .  S
C1316      C1317   1.409       .  A
C1317      C1318   1.404       .  A
C1317     Br1329   1.917       .  S
C1318      H1321   1.082       .  S
C1320      C1322   1.402       .  A
C1320      C1326   1.406       .  A
C1322      C1323   1.404       .  A
C1322      H1327   1.083       .  S
C1323      C1324   1.416       .  A
C1323     Br1331   1.920       .  S
C1324      C1325   1.407       .  A
C1325      C1326   1.400       .  A
C1325      H1328   1.083       .  S
C1326     Br1332   1.919       .  S
C1333      C1334   1.423       .  A
C1333      C1338   1.407       .  A
C1334      C1335   1.403       .  A
C1334     Br1350   1.915       .  S
C1335      C1336   1.398       .  A
C1335      H1339   1.084       .  S
C1336      C1340   1.484       .  S
C1336      C1337   1.406       .  A
C1337      C1338   1.401       .  A
C1337     Br1349   1.919       .  S
C1338      H1341   1.076       .  S
C1340      C1342   1.404       .  A
C1340      C1346   1.407       .  A
C1342      C1343   1.405       .  A
C1342      H1347   1.083       .  S
C1343      C1344   1.413       .  A
C1343     Br1351   1.919   1_565  S
C1344      C1345   1.407       .  A
C1345      C1346   1.399       .  A
C1345      H1348   1.084       .  S
C1346     Br1352   1.919       .  S
C1353      C1354   1.414       .  A
C1353      C1358   1.409       .  A
C1354      C1355   1.403       .  A
C1354     Br1370   1.918       .  S
C1355      C1356   1.402       .  A
C1355      H1359   1.083       .  S
C1356      C1360   1.483       .  S
C1356      C1357   1.406       .  A
C1357      C1358   1.401       .  A
C1357     Br1369   1.918       .  S
C1358      H1361   1.083       .  S
C1360      C1362   1.402       .  A
C1360      C1366   1.407       .  A
C1362      C1363   1.403       .  A
C1362      H1367   1.083       .  S
C1363      C1364   1.414       .  A
C1363     Br1371   1.919       .  S
C1364      C1365   1.407       .  A
C1365      C1366   1.402       .  A
C1365      H1368   1.083       .  S
C1366     Br1372   1.918       .  S
C1373      C1374   1.420       .  A
C1373      C1378   1.413       .  A
C1374      C1375   1.401       .  A
C1374     Br1390   1.913       .  S
C1375      C1376   1.398       .  A
C1375      H1379   1.084       .  S
C1376      C1380   1.485       .  S
C1376      C1377   1.406       .  A
C1377      C1378   1.405       .  A
C1377     Br1389   1.917       .  S
C1378      H1381   1.083       .  S
C1380      C1382   1.403       .  A
C1380      C1386   1.409       .  A
C1382      C1383   1.404       .  A
C1382      H1387   1.083       .  S
C1383      C1384   1.413       .  A
C1383     Br1391   1.921       .  S
C1384      C1385   1.403       .  A
C1385      C1386   1.403       .  A
C1385      H1388   1.083       .  S
C1386     Br1392   1.918       .  S
C1393      C1394   1.409       .  A
C1393      C1398   1.402       .  A
C1394      C1395   1.401       .  A
C1394     Br1410   1.916       .  S
C1395      C1396   1.405       .  A
C1395      H1399   1.083       .  S
C1396      C1400   1.492       .  S
C1396      C1397   1.412       .  A
C1397      C1398   1.403       .  A
C1397     Br1409   1.919       .  S
C1398      H1401   1.083       .  S
C1400      C1402   1.405       .  A
C1400      C1406   1.413       .  A
C1402      C1403   1.401       .  A
C1402      H1407   1.083       .  S
C1403      C1404   1.410       .  A
C1403     Br1411   1.920       .  S
C1404      C1405   1.403       .  A
C1405      C1406   1.404       .  A
C1405      H1408   1.083       .  S
C1406     Br1412   1.919       .  S
C1413      C1414   1.414       .  A
C1413      C1418   1.406       .  A
C1414      C1415   1.399       .  A
C1414     Br1430   1.920       .  S
C1415      C1416   1.400       .  A
C1415      H1419   1.084       .  S
C1416      C1420   1.477       .  S
C1416      C1417   1.406       .  A
C1417      C1418   1.400       .  A
C1417     Br1429   1.918       .  S
C1418      H1421   1.084       .  S
C1420      C1422   1.400       .  A
C1420      C1426   1.406       .  A
C1422      C1423   1.399       .  A
C1422      H1427   1.084       .  S
C1423      C1424   1.415       .  A
C1423     Br1431   1.922       .  S
C1424      C1425   1.407       .  A
C1425      C1426   1.401       .  A
C1425      H1428   1.083       .  S
C1426     Br1432   1.918       .  S
C1433      C1434   1.410       .  A
C1433      C1438   1.402       .  A
C1434      C1435   1.397       .  A
C1434     Br1450   1.915       .  S
C1435      C1436   1.400       .  A
C1435      H1439   1.084       .  S
C1436      C1440   1.477       .  S
C1436      C1437   1.408       .  A
C1437      C1438   1.401       .  A
C1437     Br1449   1.918       .  S
C1438      H1441   1.082       .  S
C1440      C1442   1.398       .  A
C1440      C1446   1.407       .  A
C1442      C1443   1.398       .  A
C1442      H1447   1.084       .  S
C1443      C1444   1.419       .  A
C1443     Br1451   1.924       .  S
C1444      C1445   1.408       .  A
C1445      C1446   1.401       .  A
C1445      H1448   1.083       .  S
C1446     Br1452   1.918       .  S
C1453      C1454   1.412       .  A
C1453      C1458   1.402       .  A
C1454      C1455   1.396       .  A
C1454     Br1470   1.921       .  S
C1455      C1456   1.400       .  A
C1455      H1459   1.084       .  S
C1456      C1460   1.476       .  S
C1456      C1457   1.408       .  A
C1457      C1458   1.401       .  A
C1457     Br1469   1.917       .  S
C1458      H1461   1.080       .  S
C1460      C1462   1.398       .  A
C1460      C1466   1.409       .  A
C1462      C1463   1.397       .  A
C1462      H1467   1.084       .  S
C1463      C1464   1.415       .  A
C1463     Br1471   1.922       .  S
C1464      C1465   1.404       .  A
C1465      C1466   1.401       .  A
C1465      H1468   1.083       .  S
C1466     Br1472   1.918       .  S
C1473      C1474   1.416       .  A
C1473      C1478   1.411       .  A
C1474      C1475   1.399       .  A
C1474     Br1490   1.921       .  S
C1475      C1476   1.400       .  A
C1475      H1479   1.084       .  S
C1476      C1480   1.477       .  S
C1476      C1477   1.405       .  A
C1477      C1478   1.400       .  A
C1477     Br1489   1.919       .  S
C1478      H1481   1.083       .  S
C1480      C1482   1.401       .  A
C1480      C1486   1.406       .  A
C1482      C1483   1.399       .  A
C1482      H1487   1.084       .  S
C1483      C1484   1.413       .  A
C1483     Br1491   1.916       .  S
C1484      C1485   1.407       .  A
C1485      C1486   1.399       .  A
C1485      H1488   1.083       .  S
C1486     Br1492   1.918       .  S
C1493      C1494   1.408       .  A
C1493      C1498   1.403       .  A
C1494      C1495   1.398       .  A
C1494     Br1510   1.920       .  S
C1495      C1496   1.405       .  A
C1495      H1499   1.083       .  S
C1496      C1500   1.482       .  S
C1496      C1497   1.410       .  A
C1497      C1498   1.398       .  A
C1497     Br1509   1.920       .  S
C1498      H1501   1.084       .  S
C1500      C1502   1.404       .  A
C1500      C1506   1.407       .  A
C1502      C1503   1.400       .  A
C1502      H1507   1.084       .  S
C1503      C1504   1.413       .  A
C1503     Br1511   1.915       .  S
C1504      C1505   1.407       .  A
C1505      C1506   1.396       .  A
C1505      H1508   1.083       .  S
C1506     Br1512   1.920       .  S
C1513      C1514   1.410       .  A
C1513      C1518   1.406       .  A
C1514      C1515   1.404       .  A
C1514     Br1530   1.918       .  S
C1515      C1516   1.406       .  A
C1515      H1519   1.083       .  S
C1516      C1520   1.489       .  S
C1516      C1517   1.410       .  A
C1517      C1518   1.401       .  A
C1517     Br1529   1.920       .  S
C1518      H1521   1.084       .  S
C1520      C1522   1.404       .  A
C1520      C1526   1.409       .  A
C1522      C1523   1.403       .  A
C1522      H1527   1.084       .  S
C1523      C1524   1.409       .  A
C1523     Br1531   1.910       .  S
C1524      C1525   1.408       .  A
C1525      C1526   1.402       .  A
C1525      H1528   1.084       .  S
C1526     Br1532   1.919       .  S
C1533      C1534   1.413       .  A
C1533      C1538   1.405       .  A
C1534      C1535   1.401       .  A
C1534     Br1550   1.912       .  S
C1535      C1536   1.400       .  A
C1535      H1539   1.084       .  S
C1536      C1540   1.475       .  S
C1536      C1537   1.405       .  A
C1537      C1538   1.396       .  A
C1537     Br1549   1.919       .  S
C1538      H1541   1.084       .  S
C1540      C1542   1.399       .  A
C1540      C1546   1.403       .  A
C1542      C1543   1.399       .  A
C1542      H1547   1.084       .  S
C1543      C1544   1.420       .  A
C1543     Br1551   1.923       .  S
C1544      C1545   1.411       .  A
C1545      C1546   1.399       .  A
C1545      H1548   1.083       .  S
C1546     Br1552   1.918       .  S
C1553      C1554   1.416       .  A
C1553      C1558   1.405       .  A
C1554      C1555   1.399       .  A
C1554     Br1570   1.922       .  S
C1555      C1556   1.400       .  A
C1555      H1559   1.084       .  S
C1556      C1560   1.480       .  S
C1556      C1557   1.409       .  A
C1557      C1558   1.400       .  A
C1557     Br1569   1.919       .  S
C1558      H1561   1.083       .  S
C1560      C1562   1.403       .  A
C1560      C1566   1.408       .  A
C1562      C1563   1.402       .  A
C1562      H1567   1.084       .  S
C1563      C1564   1.413       .  A
C1563     Br1571   1.920       .  S
C1564      C1565   1.399       .  A
C1565      C1566   1.395       .  A
C1565      H1568   1.083       .  S
C1566     Br1572   1.920       .  S
C1573      C1574   1.417       .  A
C1573      C1578   1.408       .  A
C1574      C1575   1.400       .  A
C1574     Br1590   1.922       .  S
C1575      C1576   1.400       .  A
C1575      H1579   1.084       .  S
C1576      C1580   1.478       .  S
C1576      C1577   1.406       .  A
C1577      C1578   1.401       .  A
C1577     Br1589   1.918       .  S
C1578      H1581   1.083       .  S
C1580      C1582   1.397       .  A
C1580      C1586   1.405       .  A
C1582      C1583   1.397       .  A
C1582      H1587   1.084       .  S
C1583      C1584   1.417       .  A
C1583     Br1591   1.914       .  S
C1584      C1585   1.410       .  A
C1585      C1586   1.403       .  A
C1585      H1588   1.083       .  S
C1586     Br1592   1.917       .  S
C1593      C1594   1.414       .  A
C1593      C1598   1.405       .  A
C1594      C1595   1.399       .  A
C1594     Br1610   1.921       .  S
C1595      C1596   1.400       .  A
C1595      H1599   1.084       .  S
C1596      C1600   1.478       .  S
C1596      C1597   1.408       .  A
C1597      C1598   1.402       .  A
C1597     Br1609   1.918       .  S
C1598      H1601   1.083       .  S
C1600      C1602   1.396       .  A
C1600      C1606   1.404       .  A
C1602      C1603   1.398       .  A
C1602      H1607   1.084       .  S
C1603      C1604   1.422       .  A
C1603     Br1611   1.914       .  S
C1604      C1605   1.410       .  A
C1605      C1606   1.402       .  A
C1605      H1608   1.083       .  S
C1606     Br1612   1.916       .  S
C1613      C1614   1.408       .  A
C1613      C1618   1.400       .  A
C1614      C1615   1.403       .  A
C1614     Br1630   1.918       .  S
C1615      C1616   1.406       .  A
C1615      H1619   1.083       .  S
C1616      C1620   1.484       .  S
C1616      C1617   1.409       .  A
C1617      C1618   1.397       .  A
C1617     Br1629   1.919       .  S
C1618      H1621   1.084       .  S
C1620      C1622   1.402       .  A
C1620      C1626   1.409       .  A
C1622      C1623   1.398       .  A
C1622      H1627   1.084       .  S
C1623      C1624   1.412       .  A
C1623     Br1631   1.921       .  S
C1624      C1625   1.406       .  A
C1625      C1626   1.404       .  A
C1625      H1628   1.083       .  S
C1626     Br1632   1.918       .  S
C1633      C1634   1.418       .  A
C1633      C1638   1.410       .  A
C1634      C1635   1.398       .  A
C1634     Br1650   1.914       .  S
C1635      C1636   1.398       .  A
C1635      H1639   1.084       .  S
C1636      C1640   1.481       .  S
C1636      C1637   1.406       .  A
C1637      C1638   1.403       .  A
C1637     Br1649   1.918       .  S
C1638      H1641   1.083       .  S
C1640      C1642   1.401       .  A
C1640      C1646   1.407       .  A
C1642      C1643   1.399       .  A
C1642      H1647   1.084       .  S
C1643      C1644   1.414       .  A
C1643     Br1651   1.922       .  S
C1644      C1645   1.407       .  A
C1645      C1646   1.402       .  A
C1645      H1648   1.083       .  S
C1646     Br1652   1.918       .  S
C1653      C1654   1.421       .  A
C1653      C1658   1.410       .  A
C1654      C1655   1.397       .  A
C1654     Br1670   1.925       .  S
C1655      C1656   1.399       .  A
C1655      H1659   1.084       .  S
C1656      C1660   1.482       .  S
C1656      C1657   1.407       .  A
C1657      C1658   1.402       .  A
C1657     Br1669   1.918       .  S
C1658      H1661   1.083       .  S
C1660      C1662   1.402       .  A
C1660      C1666   1.409       .  A
C1662      C1663   1.400       .  A
C1662      H1667   1.084       .  S
C1663      C1664   1.416       .  A
C1663     Br1671   1.921       .  S
C1664      C1665   1.402       .  A
C1665      C1666   1.399       .  A
C1665      H1668   1.080       .  S
C1666     Br1672   1.919       .  S
C1673      C1674   1.419       .  A
C1673      C1678   1.412       .  A
C1674      C1675   1.406       .  A
C1674     Br1690   1.920       .  S
C1675      C1676   1.404       .  A
C1675      H1679   1.083       .  S
C1676      C1680   1.487       .  S
C1676      C1677   1.405       .  A
C1677      C1678   1.398       .  A
C1677     Br1689   1.920       .  S
C1678      H1681   1.083       .  S
C1680      C1682   1.405       .  A
C1680      C1686   1.408       .  A
C1682      C1683   1.403       .  A
C1682      H1687   1.084       .  S
C1683      C1684   1.413       .  A
C1683     Br1691   1.918       .  S
C1684      C1685   1.407       .  A
C1685      C1686   1.401       .  A
C1685      H1688   1.083       .  S
C1686     Br1692   1.918       .  S
C1693      C1694   1.412       .  A
C1693      C1698   1.405       .  A
C1694      C1695   1.405       .  A
C1694     Br1710   1.914       .  S
C1695      C1696   1.402       .  A
C1695      H1699   1.083       .  S
C1696      C1700   1.477       .  S
C1696      C1697   1.405       .  A
C1697      C1698   1.394       .  A
C1697     Br1709   1.920       .  S
C1698      H1701   1.084       .  S
C1700      C1702   1.405       .  A
C1700      C1706   1.404       .  A
C1702      C1703   1.402       .  A
C1702      H1707   1.083       .  S
C1703      C1704   1.408       .  A
C1703     Br1711   1.918       .  S
C1704      C1705   1.406       .  A
C1705      C1706   1.397       .  A
C1705      H1708   1.084       .  S
C1706     Br1712   1.918       .  S
C1713      C1714   1.417       .  A
C1713      C1718   1.409       .  A
C1714      C1715   1.407       .  A
C1714     Br1730   1.920       .  S
C1715      C1716   1.404       .  A
C1715      H1719   1.083       .  S
C1716      C1720   1.485       .  S
C1716      C1717   1.405       .  A
C1717      C1718   1.398       .  A
C1717     Br1729   1.920       .  S
C1718      H1721   1.083       .  S
C1720      C1722   1.402       .  A
C1720      C1726   1.409       .  A
C1722      C1723   1.402       .  A
C1722      H1727   1.083       .  S
C1723      C1724   1.413       .  A
C1723     Br1731   1.920       .  S
C1724      C1725   1.403       .  A
C1725      C1726   1.403       .  A
C1725      H1728   1.080       .  S
C1726     Br1732   1.918       .  S
C1733      C1734   1.410       .  A
C1733      C1738   1.403       .  A
C1734      C1735   1.395       .  A
C1734     Br1750   1.920       .  S
C1735      C1736   1.399       .  A
C1735      H1739   1.084       .  S
C1736      C1740   1.475       .  S
C1736      C1737   1.410       .  A
C1737      C1738   1.401       .  A
C1737     Br1749   1.919       .  S
C1738      H1741   1.083       .  S
C1740      C1742   1.400       .  A
C1740      C1746   1.403       .  A
C1742      C1743   1.401       .  A
C1742      H1747   1.084       .  S
C1743      C1744   1.417       .  A
C1743     Br1751   1.913       .  S
C1744      C1745   1.410       .  A
C1745      C1746   1.395       .  A
C1745      H1748   1.083       .  S
C1746     Br1752   1.920       .  S
C1753      C1754   1.414       .  A
C1753      C1758   1.408       .  A
C1754      C1755   1.404       .  A
C1754     Br1770   1.920       .  S
C1755      C1756   1.405       .  A
C1755      H1759   1.083       .  S
C1756      C1760   1.487       .  S
C1756      C1757   1.408       .  A
C1757      C1758   1.400       .  A
C1757     Br1769   1.920       .  S
C1758      H1761   1.083       .  S
C1760      C1762   1.403       .  A
C1760      C1766   1.410       .  A
C1762      C1763   1.401       .  A
C1762      H1767   1.084       .  S
C1763      C1764   1.414       .  A
C1763     Br1771   1.921       .  S
C1764      C1765   1.404       .  A
C1765      C1766   1.403       .  A
C1765      H1768   1.083       .  S
C1766     Br1772   1.918       .  S
C1773      C1774   1.411       .  A
C1773      C1778   1.402       .  A
C1774      C1775   1.399       .  A
C1774     Br1790   1.920       .  S
C1775      C1776   1.401       .  A
C1775      H1779   1.083       .  S
C1776      C1780   1.475       .  S
C1776      C1777   1.409       .  A
C1777      C1778   1.398       .  A
C1777     Br1789   1.920       .  S
C1778      H1781   1.084       .  S
C1780      C1782   1.399       .  A
C1780      C1786   1.409       .  A
C1782      C1783   1.393       .  A
C1782      H1787   1.084       .  S
C1783      C1784   1.413       .  A
C1783     Br1791   1.923       .  S
C1784      C1785   1.403       .  A
C1785      C1786   1.403       .  A
C1785      H1788   1.083       .  S
C1786     Br1792   1.917       .  S
C1793      C1794   1.413       .  A
C1793      C1798   1.403       .  A
C1794      C1795   1.401       .  A
C1794     Br1810   1.920       .  S
C1795      C1796   1.402       .  A
C1795      H1799   1.083       .  S
C1796      C1800   1.485       .  S
C1796      C1797   1.410       .  A
C1797      C1798   1.404       .  A
C1797     Br1809   1.917       .  S
C1798      H1801   1.084       .  S
C1800      C1802   1.401       .  A
C1800      C1806   1.409       .  A
C1802      C1803   1.401       .  A
C1802      H1807   1.084       .  S
C1803      C1804   1.413       .  A
C1803     Br1811   1.920       .  S
C1804      C1805   1.407       .  A
C1805      C1806   1.405       .  A
C1805      H1808   1.083       .  S
C1806     Br1812   1.918       .  S
C1813      C1814   1.414       .  A
C1813      C1818   1.408       .  A
C1814      C1815   1.400       .  A
C1814     Br1830   1.914       .  S
C1815      C1816   1.400       .  A
C1815      H1819   1.084       .  S
C1816      C1820   1.480       .  S
C1816      C1817   1.406       .  A
C1817      C1818   1.401       .  A
C1817     Br1829   1.918       .  S
C1818      H1821   1.083       .  S
C1820      C1822   1.403       .  A
C1820      C1826   1.406       .  A
C1822      C1823   1.402       .  A
C1822      H1827   1.083       .  S
C1823      C1824   1.413       .  A
C1823     Br1831   1.920       .  S
C1824      C1825   1.407       .  A
C1825      C1826   1.400       .  A
C1825      H1828   1.084       .  S
C1826     Br1832   1.919       .  S
C1833      C1834   1.422       .  A
C1833      C1838   1.412       .  A
C1834      C1835   1.394       .  A
C1834     Br1850   1.926       .  S
C1835      C1836   1.398       .  A
C1835      H1839   1.084       .  S
C1836      C1840   1.479       .  S
C1836      C1837   1.405       .  A
C1837      C1838   1.399       .  A
C1837     Br1849   1.920       .  S
C1838      H1841   1.076       .  S
C1840      C1842   1.405       .  A
C1840      C1846   1.409       .  A
C1842      C1843   1.397       .  A
C1842      H1847   1.084       .  S
C1843      C1844   1.407       .  A
C1843     Br1851   1.919       .  S
C1844      C1845   1.403       .  A
C1845      C1846   1.397       .  A
C1845      H1848   1.084       .  S
C1846     Br1852   1.920       .  S
C1853      C1854   1.418       .  A
C1853      C1858   1.410       .  A
C1854      C1855   1.407       .  A
C1854     Br1870   1.920   1_455  S
C1855      C1856   1.403       .  A
C1855      H1859   1.083       .  S
C1856      C1860   1.489       .  S
C1856      C1857   1.407       .  A
C1857      C1858   1.403       .  A
C1857     Br1869   1.919       .  S
C1858      H1861   1.083       .  S
C1860      C1862   1.403       .  A
C1860      C1866   1.409       .  A
C1862      C1863   1.404       .  A
C1862      H1867   1.083       .  S
C1863      C1864   1.413       .  A
C1863     Br1871   1.920       .  S
C1864      C1865   1.404       .  A
C1865      C1866   1.404       .  A
C1865      H1868   1.084       .  S
C1866     Br1872   1.917       .  S
C1873      C1874   1.417       .  A
C1873      C1878   1.410       .  A
C1874      C1875   1.401       .  A
C1874     Br1890   1.911       .  S
C1875      C1876   1.399       .  A
C1875      H1879   1.084       .  S
C1876      C1880   1.482       .  S
C1876      C1877   1.405       .  A
C1877      C1878   1.402       .  A
C1877     Br1889   1.918       .  S
C1878      H1881   1.083       .  S
C1880      C1882   1.399       .  A
C1880      C1886   1.409       .  A
C1882      C1883   1.398       .  A
C1882      H1887   1.084       .  S
C1883      C1884   1.415       .  A
C1883     Br1891   1.918       .  S
C1884      C1885   1.407       .  A
C1885      C1886   1.404       .  A
C1885      H1888   1.083       .  S
C1886     Br1892   1.917       .  S
C1893      C1894   1.421       .  A
C1893      C1898   1.412       .  A
C1894      C1895   1.398       .  A
C1894     Br1910   1.917       .  S
C1895      C1896   1.399       .  A
C1895      H1899   1.084       .  S
C1896      C1900   1.487       .  S
C1896      C1897   1.407       .  A
C1897      C1898   1.402       .  A
C1897     Br1909   1.918       .  S
C1898      H1901   1.083       .  S
C1900      C1902   1.402       .  A
C1900      C1906   1.409       .  A
C1902      C1903   1.404       .  A
C1902      H1907   1.083       .  S
C1903      C1904   1.421       .  A
C1903     Br1911   1.922       .  S
C1904      C1905   1.408       .  A
C1905      C1906   1.398       .  A
C1905      H1908   1.083       .  S
C1906     Br1912   1.922       .  S
C1913      C1914   1.425       .  A
C1913      C1918   1.416       .  A
C1914      C1915   1.402       .  A
C1914     Br1930   1.915       .  S
C1915      C1916   1.399       .  A
C1915      H1919   1.084       .  S
C1916      C1920   1.487       .  S
C1916      C1917   1.404       .  A
C1917      C1918   1.400       .  A
C1917     Br1929   1.919       .  S
C1918      H1921   1.082       .  S
C1920      C1922   1.401       .  A
C1920      C1926   1.408       .  A
C1922      C1923   1.402       .  A
C1922      H1927   1.084       .  S
C1923      C1924   1.422       .  A
C1923     Br1931   1.921       .  S
C1924      C1925   1.409       .  A
C1925      C1926   1.400       .  A
C1925      H1928   1.083       .  S
C1926     Br1932   1.919       .  S
C1933      C1934   1.411       .  A
C1933      C1938   1.402       .  A
C1934      C1935   1.400       .  A
C1934     Br1950   1.920       .  S
C1935      C1936   1.403       .  A
C1935      H1939   1.083       .  S
C1936      C1940   1.479       .  S
C1936      C1937   1.410       .  A
C1937      C1938   1.397       .  A
C1937     Br1949   1.921       .  S
C1938      H1941   1.084       .  S
C1940      C1942   1.404       .  A
C1940      C1946   1.410       .  A
C1942      C1943   1.397       .  A
C1942      H1947   1.084       .  S
C1943      C1944   1.405       .  A
C1943     Br1951   1.918       .  S
C1944      C1945   1.401       .  A
C1945      C1946   1.399       .  A
C1945      H1948   1.084       .  S
C1946     Br1952   1.918       .  S
C1953      C1954   1.411       .  A
C1953      C1958   1.406       .  A
C1954      C1955   1.399       .  A
C1954     Br1970   1.918       .  S
C1955      C1956   1.401       .  A
C1955      H1959   1.084       .  S
C1956      C1960   1.477       .  S
C1956      C1957   1.406       .  A
C1957      C1958   1.399       .  A
C1957     Br1969   1.918       .  S
C1958      H1961   1.083       .  S
C1960      C1962   1.401       .  A
C1960      C1966   1.406       .  A
C1962      C1963   1.400       .  A
C1962      H1967   1.084       .  S
C1963      C1964   1.413       .  A
C1963     Br1971   1.920       .  S
C1964      C1965   1.407       .  A
C1965      C1966   1.399       .  A
C1965      H1968   1.084       .  S
C1966     Br1972   1.919       .  S
C1973      C1974   1.425       .  A
C1973      C1978   1.414       .  A
C1974      C1975   1.398       .  A
C1974     Br1990   1.924       .  S
C1975      C1976   1.395       .  A
C1975      H1979   1.084       .  S
C1976      C1980   1.473       .  S
C1976      C1977   1.402       .  A
C1977      C1978   1.398       .  A
C1977     Br1989   1.920       .  S
C1978      H1981   1.075       .  S
C1980      C1982   1.400       .  A
C1980      C1986   1.404       .  A
C1982      C1983   1.397       .  A
C1982      H1987   1.084       .  S
C1983      C1984   1.414       .  A
C1983     Br1991   1.922       .  S
C1984      C1985   1.407       .  A
C1985      C1986   1.399       .  A
C1985      H1988   1.083       .  S
C1986     Br1992   1.918       .  S
C1993      C1994   1.423       .  A
C1993      C1998   1.416       .  A
C1994      C1995   1.405       .  A
C1994     Br2010   1.923       .  S
C1995      C1996   1.400       .  A
C1995      H1999   1.083       .  S
C1996      C2000   1.477       .  S
C1996      C1997   1.400       .  A
C1997      C1998   1.393       .  A
C1997     Br2009   1.922       .  S
C1998      H2001   1.073       .  S
C2000      C2002   1.401       .  A
C2000      C2006   1.406       .  A
C2002      C2003   1.400       .  A
C2002      H2007   1.084       .  S
C2003      C2004   1.415       .  A
C2003     Br2011   1.921       .  S
C2004      C2005   1.407       .  A
C2005      C2006   1.400       .  A
C2005      H2008   1.083       .  S
C2006     Br2012   1.918       .  S
C2013      C2014   1.411       .  A
C2013      C2018   1.404       .  A
C2014      C2015   1.397       .  A
C2014     Br2030   1.922       .  S
C2015      C2016   1.400       .  A
C2015      H2019   1.084       .  S
C2016      C2020   1.478       .  S
C2016      C2017   1.409       .  A
C2017      C2018   1.403       .  A
C2017     Br2029   1.918       .  S
C2018      H2021   1.083       .  S
C2020      C2022   1.402       .  A
C2020      C2026   1.407       .  A
C2022      C2023   1.400       .  A
C2022      H2027   1.084       .  S
C2023      C2024   1.411       .  A
C2023     Br2031   1.920       .  S
C2024      C2025   1.404       .  A
C2025      C2026   1.399       .  A
C2025      H2028   1.083       .  S
C2026     Br2032   1.918       .  S
C2033      C2034   1.408       .  A
C2033      C2038   1.401       .  A
C2034      C2035   1.396       .  A
C2034     Br2050   1.920       .  S
C2035      C2036   1.404       .  A
C2035      H2039   1.083       .  S
C2036      C2040   1.484       .  S
C2036      C2037   1.412       .  A
C2037      C2038   1.401       .  A
C2037     Br2049   1.918       .  S
C2038      H2041   1.084       .  S
C2040      C2042   1.405       .  A
C2040      C2046   1.408       .  A
C2042      C2043   1.401       .  A
C2042      H2047   1.083       .  S
C2043      C2044   1.412       .  A
C2043     Br2051   1.919       .  S
C2044      C2045   1.408       .  A
C2045      C2046   1.397       .  A
C2045      H2048   1.084       .  S
C2046     Br2052   1.921       .  S
C2053      C2054   1.415       .  A
C2053      C2058   1.408       .  A
C2054      C2055   1.401       .  A
C2054     Br2070   1.920       .  S
C2055      C2056   1.402       .  A
C2055      H2059   1.084       .  S
C2056      C2060   1.477       .  S
C2056      C2057   1.404       .  A
C2057      C2058   1.398       .  A
C2057     Br2069   1.918       .  S
C2058      H2061   1.083       .  S
C2060      C2062   1.399       .  A
C2060      C2066   1.399       .  A
C2062      C2063   1.404       .  A
C2062      H2067   1.083       .  S
C2063      C2064   1.424       .  A
C2063     Br2071   1.923       .  S
C2064      C2065   1.416       .  A
C2065      C2066   1.394       .  A
C2065      H2068   1.072       .  S
C2066     Br2072   1.921       .  S
C2073      C2074   1.416       .  A
C2073      C2078   1.406       .  A
C2074      C2075   1.403       .  A
C2074     Br2090   1.922       .  S
C2075      C2076   1.403       .  A
C2075      H2079   1.084       .  S
C2076      C2080   1.486       .  S
C2076      C2077   1.409       .  A
C2077      C2078   1.399       .  A
C2077     Br2089   1.919       .  S
C2078      H2081   1.083       .  S
C2080      C2082   1.402       .  A
C2080      C2086   1.408       .  A
C2082      C2083   1.400       .  A
C2082      H2087   1.084       .  S
C2083      C2084   1.414       .  A
C2083     Br2091   1.918       .  S
C2084      C2085   1.408       .  A
C2085      C2086   1.401       .  A
C2085      H2088   1.083       .  S
C2086     Br2092   1.919       .  S
C2093      C2094   1.410       .  A
C2093      C2098   1.404       .  A
C2094      C2095   1.400       .  A
C2094     Br2110   1.921       .  S
C2095      C2096   1.404       .  A
C2095      H2099   1.084       .  S
C2096      C2100   1.481       .  S
C2096      C2097   1.408       .  A
C2097      C2098   1.400       .  A
C2097     Br2109   1.918       .  S
C2098      H2101   1.084       .  S
C2100      C2102   1.405       .  A
C2100      C2106   1.405       .  A
C2102      C2103   1.403       .  A
C2102      H2107   1.083       .  S
C2103      C2104   1.410       .  A
C2103     Br2111   1.916       .  S
C2104      C2105   1.409       .  A
C2105      C2106   1.396       .  A
C2105      H2108   1.083       .  S
C2106     Br2112   1.920       .  S
C2113      C2114   1.417       .  A
C2113      C2118   1.410       .  A
C2114      C2115   1.403       .  A
C2114     Br2130   1.920       .  S
C2115      C2116   1.402       .  A
C2115      H2119   1.084       .  S
C2116      C2120   1.480       .  S
C2116      C2117   1.405       .  A
C2117      C2118   1.397       .  A
C2117     Br2129   1.920       .  S
C2118      H2121   1.083       .  S
C2120      C2122   1.401       .  A
C2120      C2126   1.405       .  A
C2122      C2123   1.402       .  A
C2122      H2127   1.084       .  S
C2123      C2124   1.417       .  A
C2123     Br2131   1.917       .  S
C2124      C2125   1.409       .  A
C2125      C2126   1.397       .  A
C2125      H2128   1.083       .  S
C2126     Br2132   1.920       .  S
C2133      C2134   1.410       .  A
C2133      C2138   1.406       .  A
C2134      C2135   1.403       .  A
C2134     Br2150   1.917       .  S
C2135      C2136   1.405       .  A
C2135      H2139   1.083       .  S
C2136      C2140   1.486       .  S
C2136      C2137   1.409       .  A
C2137      C2138   1.400       .  A
C2137     Br2149   1.918       .  S
C2138      H2141   1.084       .  S
C2140      C2142   1.399       .  A
C2140      C2146   1.407       .  A
C2142      C2143   1.401       .  A
C2142      H2147   1.084       .  S
C2143      C2144   1.424       .  A
C2143     Br2151   1.923       .  S
C2144      C2145   1.411       .  A
C2145      C2146   1.403       .  A
C2145      H2148   1.083       .  S
C2146     Br2152   1.918       .  S
C2153      C2154   1.408       .  A
C2153      C2158   1.407       .  A
C2154      C2155   1.397       .  A
C2154     Br2170   1.919       .  S
C2155      C2156   1.405       .  A
C2155      H2159   1.083       .  S
C2156      C2160   1.485       .  S
C2156      C2157   1.409       .  A
C2157      C2158   1.401       .  A
C2157     Br2169   1.919       .  S
C2158      H2161   1.084       .  S
C2160      C2162   1.407       .  A
C2160      C2166   1.408       .  A
C2162      C2163   1.403       .  A
C2162      H2167   1.083       .  S
C2163      C2164   1.409       .  A
C2163     Br2171   1.914       .  S
C2164      C2165   1.407       .  A
C2165      C2166   1.395       .  A
C2165      H2168   1.084       .  S
C2166     Br2172   1.920       .  S
C2173      C2174   1.414       .  A
C2173      C2178   1.407       .  A
C2174      C2175   1.404       .  A
C2174     Br2190   1.919       .  S
C2175      C2176   1.404       .  A
C2175      H2179   1.084       .  S
C2176      C2180   1.480       .  S
C2176      C2177   1.405       .  A
C2177      C2178   1.397       .  A
C2177     Br2189   1.919       .  S
C2178      H2181   1.084       .  S
C2180      C2182   1.402       .  A
C2180      C2186   1.407       .  A
C2182      C2183   1.398       .  A
C2182      H2187   1.084       .  S
C2183      C2184   1.413       .  A
C2183     Br2191   1.921       .  S
C2184      C2185   1.401       .  A
C2185      C2186   1.399       .  A
C2185      H2188   1.083       .  S
C2186     Br2192   1.917       .  S
C2193      C2194   1.416       .  A
C2193      C2198   1.407       .  A
C2194      C2195   1.396       .  A
C2194     Br2210   1.915       .  S
C2195      C2196   1.399       .  A
C2195      H2199   1.084       .  S
C2196      C2200   1.481       .  S
C2196      C2197   1.407       .  A
C2197      C2198   1.403       .  A
C2197     Br2209   1.917       .  S
C2198      H2201   1.081       .  S
C2200      C2202   1.402       .  A
C2200      C2206   1.405       .  A
C2202      C2203   1.405       .  A
C2202      H2207   1.083       .  S
C2203      C2204   1.419       .  A
C2203     Br2211   1.921       .  S
C2204      C2205   1.409       .  A
C2205      C2206   1.396       .  A
C2205      H2208   1.083       .  S
C2206     Br2212   1.921       .  S
C2213      C2214   1.421       .  A
C2213      C2218   1.409       .  A
C2214      C2215   1.399       .  A
C2214     Br2230   1.924       .  S
C2215      C2216   1.399       .  A
C2215      H2219   1.084       .  S
C2216      C2220   1.484       .  S
C2216      C2217   1.408       .  A
C2217      C2218   1.403       .  A
C2217     Br2229   1.918       .  S
C2218      H2221   1.083       .  S
C2220      C2222   1.404       .  A
C2220      C2226   1.410       .  A
C2222      C2223   1.402       .  A
C2222      H2227   1.083       .  S
C2223      C2224   1.407       .  A
C2223     Br2231   1.917       .  S
C2224      C2225   1.402       .  A
C2225      C2226   1.401       .  A
C2225      H2228   1.082       .  S
C2226     Br2232   1.919       .  S
C2233      C2234   1.415       .  A
C2233      C2238   1.404       .  A
C2234      C2235   1.399       .  A
C2234     Br2250   1.922       .  S
C2235      C2236   1.401       .  A
C2235      H2239   1.083       .  S
C2236      C2240   1.483       .  S
C2236      C2237   1.411       .  A
C2237      C2238   1.401       .  A
C2237     Br2249   1.920       .  S
C2238      H2241   1.083       .  S
C2240      C2242   1.402       .  A
C2240      C2246   1.411       .  A
C2242      C2243   1.396       .  A
C2242      H2247   1.084       .  S
C2243      C2244   1.411       .  A
C2243     Br2251   1.922       .  S
C2244      C2245   1.403       .  A
C2245      C2246   1.403       .  A
C2245      H2248   1.084       .  S
C2246     Br2252   1.918       .  S
C2253      C2254   1.413       .  A
C2253      C2258   1.403       .  A
C2254      C2255   1.401       .  A
C2254     Br2270   1.919       .  S
C2255      C2256   1.402       .  A
C2255      H2259   1.084       .  S
C2256      C2260   1.481       .  S
C2256      C2257   1.409       .  A
C2257      C2258   1.399       .  A
C2257     Br2269   1.919       .  S
C2258      H2261   1.084       .  S
C2260      C2262   1.398       .  A
C2260      C2266   1.408       .  A
C2262      C2263   1.396       .  A
C2262      H2267   1.084       .  S
C2263      C2264   1.421       .  A
C2263     Br2271   1.925       .  S
C2264      C2265   1.407       .  A
C2265      C2266   1.403       .  A
C2265      H2268   1.083       .  S
C2266     Br2272   1.918       .  S
C2273      C2274   1.414       .  A
C2273      C2278   1.405       .  A
C2274      C2275   1.399       .  A
C2274     Br2290   1.922       .  S
C2275      C2276   1.401       .  A
C2275      H2279   1.084       .  S
C2276      C2280   1.477       .  S
C2276      C2277   1.406       .  A
C2277      C2278   1.400       .  A
C2277     Br2289   1.917       .  S
C2278      H2281   1.083       .  S
C2280      C2282   1.400       .  A
C2280      C2286   1.406       .  A
C2282      C2283   1.400       .  A
C2282      H2287   1.084       .  S
C2283      C2284   1.414       .  A
C2283     Br2291   1.920       .  S
C2284      C2285   1.406       .  A
C2285      C2286   1.400       .  A
C2285      H2288   1.084       .  S
C2286     Br2292   1.918       .  S
C2293      C2294   1.422       .  A
C2293      C2298   1.415       .  A
C2294      C2295   1.405       .  A
C2294     Br2310   1.921       .  S
C2295      C2296   1.400       .  A
C2295      H2299   1.083       .  S
C2296      C2300   1.473       .  S
C2296      C2297   1.399       .  A
C2297      C2298   1.391       .  A
C2297     Br2309   1.921       .  S
C2298      H2301   1.077       .  S
C2300      C2302   1.402       .  A
C2300      C2306   1.404       .  A
C2302      C2303   1.401       .  A
C2302      H2307   1.084       .  S
C2303      C2304   1.415       .  A
C2303     Br2311   1.921       .  S
C2304      C2305   1.407       .  A
C2305      C2306   1.395       .  A
C2305      H2308   1.083       .  S
C2306     Br2312   1.919       .  S
C2313      C2314   1.411       .  A
C2313      C2318   1.407       .  A
C2314      C2315   1.402       .  A
C2314     Br2330   1.915       .  S
C2315      C2316   1.402       .  A
C2315      H2319   1.083       .  S
C2316      C2320   1.480       .  S
C2316      C2317   1.406       .  A
C2317      C2318   1.400       .  A
C2317     Br2329   1.918       .  S
C2318      H2321   1.083       .  S
C2320      C2322   1.402       .  A
C2320      C2326   1.406       .  A
C2322      C2323   1.402       .  A
C2322      H2327   1.083       .  S
C2323      C2324   1.412       .  A
C2323     Br2331   1.919   1_554  S
C2324      C2325   1.406       .  A
C2325      C2326   1.400       .  A
C2325      H2328   1.084       .  S
C2326     Br2332   1.918       .  S
C2333      C2334   1.423       .  A
C2333      C2338   1.413       .  A
C2334      C2335   1.397       .  A
C2334     Br2350   1.926       .  S
C2335      C2336   1.398       .  A
C2335      H2339   1.084       .  S
C2336      C2340   1.482       .  S
C2336      C2337   1.406       .  A
C2337      C2338   1.401       .  A
C2337     Br2349   1.919       .  S
C2338      H2341   1.077       .  S
C2340      C2342   1.403       .  A
C2340      C2346   1.409       .  A
C2342      C2343   1.398       .  A
C2342      H2347   1.084       .  S
C2343      C2344   1.413       .  A
C2343     Br2351   1.921       .  S
C2344      C2345   1.405       .  A
C2345      C2346   1.400       .  A
C2345      H2348   1.083       .  S
C2346     Br2352   1.919       .  S
C2353      C2354   1.415       .  A
C2353      C2358   1.407       .  A
C2354      C2355   1.403       .  A
C2354     Br2370   1.920       .  S
C2355      C2356   1.402       .  A
C2355      H2359   1.083       .  S
C2356      C2360   1.476       .  S
C2356      C2357   1.405       .  A
C2357      C2358   1.397       .  A
C2357     Br2369   1.919       .  S
C2358      H2361   1.083       .  S
C2360      C2362   1.400       .  A
C2360      C2366   1.407       .  A
C2362      C2363   1.398       .  A
C2362      H2367   1.084       .  S
C2363      C2364   1.414       .  A
C2363     Br2371   1.921       .  S
C2364      C2365   1.404       .  A
C2365      C2366   1.401       .  A
C2365      H2368   1.084       .  S
C2366     Br2372   1.918       .  S
C2373      C2374   1.424       .  A
C2373      C2378   1.415       .  A
C2374      C2375   1.404       .  A
C2374     Br2390   1.923       .  S
C2375      C2376   1.399       .  A
C2375      H2379   1.083       .  S
C2376      C2380   1.473       .  S
C2376      C2377   1.399       .  A
C2377      C2378   1.391       .  A
C2377     Br2389   1.922       .  S
C2378      H2381   1.072       .  S
C2380      C2382   1.400       .  A
C2380      C2386   1.406       .  A
C2382      C2383   1.399       .  A
C2382      H2387   1.084       .  S
C2383      C2384   1.414       .  A
C2383     Br2391   1.921       .  S
C2384      C2385   1.406       .  A
C2385      C2386   1.399       .  A
C2385      H2388   1.083       .  S
C2386     Br2392   1.919       .  S
C2393      C2394   1.413       .  A
C2393      C2398   1.404       .  A
C2394      C2395   1.399       .  A
C2394     Br2410   1.921       .  S
C2395      C2396   1.401       .  A
C2395      H2399   1.084       .  S
C2396      C2400   1.480       .  S
C2396      C2397   1.408       .  A
C2397      C2398   1.402       .  A
C2397     Br2409   1.918       .  S
C2398      H2401   1.084       .  S
C2400      C2402   1.403       .  A
C2400      C2406   1.404       .  A
C2402      C2403   1.404       .  A
C2402      H2407   1.083       .  S
C2403      C2404   1.416       .  A
C2403     Br2411   1.920       .  S
C2404      C2405   1.410       .  A
C2405      C2406   1.397       .  A
C2405      H2408   1.083       .  S
C2406     Br2412   1.920       .  S
C2413      C2414   1.413       .  A
C2413      C2418   1.403       .  A
C2414      C2415   1.398       .  A
C2414     Br2430   1.922       .  S
C2415      C2416   1.401       .  A
C2415      H2419   1.084       .  S
C2416      C2420   1.480       .  S
C2416      C2417   1.409       .  A
C2417      C2418   1.401       .  A
C2417     Br2429   1.918       .  S
C2418      H2421   1.084       .  S
C2420      C2422   1.403       .  A
C2420      C2426   1.405       .  A
C2422      C2423   1.403       .  A
C2422      H2427   1.084       .  S
C2423      C2424   1.416       .  A
C2423     Br2431   1.920   1_556  S
C2424      C2425   1.410       .  A
C2425      C2426   1.397       .  A
C2425      H2428   1.083       .  S
C2426     Br2432   1.920       .  S
C2433      C2434   1.412       .  A
C2433      C2438   1.403       .  A
C2434      C2435   1.398       .  A
C2434     Br2450   1.920       .  S
C2435      C2436   1.402       .  A
C2435      H2439   1.084       .  S
C2436      C2440   1.482       .  S
C2436      C2437   1.410       .  A
C2437      C2438   1.402       .  A
C2437     Br2449   1.919       .  S
C2438      H2441   1.081       .  S
C2440      C2442   1.402       .  A
C2440      C2446   1.409       .  A
C2442      C2443   1.399       .  A
C2442      H2447   1.084       .  S
C2443      C2444   1.415       .  A
C2443     Br2451   1.922       .  S
C2444      C2445   1.407       .  A
C2445      C2446   1.401       .  A
C2445      H2448   1.083       .  S
C2446     Br2452   1.919       .  S
C2453      C2454   1.421       .  A
C2453      C2458   1.413       .  A
C2454      C2455   1.403       .  A
C2454     Br2470   1.922       .  S
C2455      C2456   1.402       .  A
C2455      H2459   1.083       .  S
C2456      C2460   1.477       .  S
C2456      C2457   1.402       .  A
C2457      C2458   1.391       .  A
C2457     Br2469   1.922       .  S
C2458      H2461   1.078       .  S
C2460      C2462   1.402       .  A
C2460      C2466   1.406       .  A
C2462      C2463   1.398       .  A
C2462      H2467   1.084       .  S
C2463      C2464   1.414       .  A
C2463     Br2471   1.922       .  S
C2464      C2465   1.407       .  A
C2465      C2466   1.398       .  A
C2465      H2468   1.083   1_565  S
C2466     Br2472   1.919       .  S
C2473      C2474   1.406       .  A
C2473      C2478   1.403       .  A
C2474      C2475   1.398       .  A
C2474     Br2490   1.918       .  S
C2475      C2476   1.406       .  A
C2475      H2479   1.083       .  S
C2476      C2480   1.485       .  S
C2476      C2477   1.412       .  A
C2477      C2478   1.399       .  A
C2477     Br2489   1.920       .  S
C2478      H2481   1.084       .  S
C2480      C2482   1.400       .  A
C2480      C2486   1.408       .  A
C2482      C2483   1.397       .  A
C2482      H2487   1.083       .  S
C2483      C2484   1.422       .  A
C2483     Br2491   1.926       .  S
C2484      C2485   1.412       .  A
C2485      C2486   1.399       .  A
C2485      H2488   1.076       .  S
C2486     Br2492   1.921       .  S
C2493      C2494   1.408       .  A
C2493      C2498   1.401       .  A
C2494      C2495   1.402       .  A
C2494     Br2510   1.918       .  S
C2495      C2496   1.405       .  A
C2495      H2499   1.083       .  S
C2496      C2500   1.488       .  S
C2496      C2497   1.412       .  A
C2497      C2498   1.402       .  A
C2497     Br2509   1.919       .  S
C2498      H2501   1.083       .  S
C2500      C2502   1.403       .  A
C2500      C2506   1.407       .  A
C2502      C2503   1.402       .  A
C2502      H2507   1.084       .  S
C2503      C2504   1.416       .  A
C2503     Br2511   1.917       .  S
C2504      C2505   1.411       .  A
C2505      C2506   1.402       .  A
C2505      H2508   1.083       .  S
C2506     Br2512   1.919       .  S
C2513      C2514   1.411       .  A
C2513      C2518   1.405       .  A
C2514      C2515   1.402       .  A
C2514     Br2530   1.916       .  S
C2515      C2516   1.404       .  A
C2515      H2519   1.083       .  S
C2516      C2520   1.485       .  S
C2516      C2517   1.408       .  A
C2517      C2518   1.400       .  A
C2517     Br2529   1.918       .  S
C2518      H2521   1.083       .  S
C2520      C2522   1.404       .  A
C2520      C2526   1.406       .  A
C2522      C2523   1.405       .  A
C2522      H2527   1.083       .  S
C2523      C2524   1.417       .  A
C2523     Br2531   1.920       .  S
C2524      C2525   1.409       .  A
C2525      C2526   1.398       .  A
C2525      H2528   1.083       .  S
C2526     Br2532   1.919       .  S
C2533      C2534   1.415       .  A
C2533      C2538   1.406       .  A
C2534      C2535   1.401       .  A
C2534     Br2550   1.920       .  S
C2535      C2536   1.402       .  A
C2535      H2539   1.083       .  S
C2536      C2540   1.479       .  S
C2536      C2537   1.408       .  A
C2537      C2538   1.397       .  A
C2537     Br2549   1.921       .  S
C2538      H2541   1.084       .  S
C2540      C2542   1.405       .  A
C2540      C2546   1.406       .  A
C2542      C2543   1.402       .  A
C2542      H2547   1.083       .  S
C2543      C2544   1.409       .  A
C2543     Br2551   1.914       .  S
C2544      C2545   1.405       .  A
C2545      C2546   1.394       .  A
C2545      H2548   1.083       .  S
C2546     Br2552   1.919       .  S
C2553      C2554   1.412       .  A
C2553      C2558   1.399       .  A
C2554      C2555   1.400       .  A
C2554     Br2570   1.921       .  S
C2555      C2556   1.403       .  A
C2555      H2559   1.084       .  S
C2556      C2560   1.477       .  S
C2556      C2557   1.407       .  A
C2557      C2558   1.396       .  A
C2557     Br2569   1.918       .  S
C2558      H2561   1.080       .  S
C2560      C2562   1.399       .  A
C2560      C2566   1.408       .  A
C2562      C2563   1.396       .  A
C2562      H2567   1.084       .  S
C2563      C2564   1.416       .  A
C2563     Br2571   1.923       .  S
C2564      C2565   1.406       .  A
C2565      C2566   1.401       .  A
C2565      H2568   1.083       .  S
C2566     Br2572   1.919       .  S
C2573      C2574   1.423       .  A
C2573      C2578   1.414       .  A
C2574      C2575   1.397       .  A
C2574     Br2590   1.926       .  S
C2575      C2576   1.399       .  A
C2575      H2579   1.084       .  S
C2576      C2580   1.480       .  S
C2576      C2577   1.405       .  A
C2577      C2578   1.398       .  A
C2577     Br2589   1.920       .  S
C2578      H2581   1.074       .  S
C2580      C2582   1.403       .  A
C2580      C2586   1.411       .  A
C2582      C2583   1.399       .  A
C2582      H2587   1.083       .  S
C2583      C2584   1.408       .  A
C2583     Br2591   1.916       .  S
C2584      C2585   1.401       .  A
C2585      C2586   1.398       .  A
C2585      H2588   1.084       .  S
C2586     Br2592   1.921       .  S
C2593      C2594   1.412       .  A
C2593      C2598   1.407       .  A
C2594      C2595   1.406       .  A
C2594     Br2610   1.918       .  S
C2595      C2596   1.406       .  A
C2595      H2599   1.083       .  S
C2596      C2600   1.487       .  S
C2596      C2597   1.408       .  A
C2597      C2598   1.399       .  A
C2597     Br2609   1.921       .  S
C2598      H2601   1.084       .  S
C2600      C2602   1.405       .  A
C2600      C2606   1.410       .  A
C2602      C2603   1.404       .  A
C2602      H2607   1.083       .  S
C2603      C2604   1.409       .  A
C2603     Br2611   1.914       .  S
C2604      C2605   1.404       .  A
C2605      C2606   1.400       .  A
C2605      H2608   1.084       .  S
C2606     Br2612   1.919       .  S
C2613      C2614   1.418       .  A
C2613      C2618   1.411       .  A
C2614      C2615   1.408       .  A
C2614     Br2630   1.920       .  S
C2615      C2616   1.406       .  A
C2615      H2619   1.083       .  S
C2616      C2620   1.491       .  S
C2616      C2617   1.406       .  A
C2617      C2618   1.399       .  A
C2617     Br2629   1.920       .  S
C2618      H2621   1.083       .  S
C2620      C2622   1.405       .  A
C2620      C2626   1.409       .  A
C2622      C2623   1.403       .  A
C2622      H2627   1.083       .  S
C2623      C2624   1.410       .  A
C2623     Br2631   1.914       .  S
C2624      C2625   1.407       .  A
C2625      C2626   1.403       .  A
C2625      H2628   1.083       .  S
C2626     Br2632   1.918       .  S
C2633      C2634   1.418       .  A
C2633      C2638   1.413       .  A
C2634      C2635   1.404       .  A
C2634     Br2650   1.920       .  S
C2635      C2636   1.403       .  A
C2635      H2639   1.084       .  S
C2636      C2640   1.477       .  S
C2636      C2637   1.401       .  A
C2637      C2638   1.395       .  A
C2637     Br2649   1.920       .  S
C2638      H2641   1.083       .  S
C2640      C2642   1.400       .  A
C2640      C2646   1.408       .  A
C2642      C2643   1.395       .  A
C2642      H2647   1.084       .  S
C2643      C2644   1.410       .  A
C2643     Br2651   1.921       .  S
C2644      C2645   1.404       .  A
C2645      C2646   1.403       .  A
C2645      H2648   1.084       .  S
C2646     Br2652   1.916       .  S
C2653      C2654   1.412       .  A
C2653      C2658   1.409       .  A
C2654      C2655   1.404       .  A
C2654     Br2670   1.916       .  S
C2655      C2656   1.405       .  A
C2655      H2659   1.083       .  S
C2656      C2660   1.481       .  S
C2656      C2657   1.405       .  A
C2657      C2658   1.396       .  A
C2657     Br2669   1.920       .  S
C2658      H2661   1.084       .  S
C2660      C2662   1.401       .  A
C2660      C2666   1.408       .  A
C2662      C2663   1.398       .  A
C2662      H2667   1.084       .  S
C2663      C2664   1.415       .  A
C2663     Br2671   1.923       .  S
C2664      C2665   1.407       .  A
C2665      C2666   1.403       .  A
C2665      H2668   1.083       .  S
C2666     Br2672   1.918       .  S
C2673      C2674   1.414       .  A
C2673      C2678   1.406       .  A
C2674      C2675   1.398       .  A
C2674     Br2690   1.921       .  S
C2675      C2676   1.399       .  A
C2675      H2679   1.084       .  S
C2676      C2680   1.474       .  S
C2676      C2677   1.406       .  A
C2677      C2678   1.399       .  A
C2677     Br2689   1.918       .  S
C2678      H2681   1.084       .  S
C2680      C2682   1.395       .  A
C2680      C2686   1.401       .  A
C2682      C2683   1.399       .  A
C2682      H2687   1.084       .  S
C2683      C2684   1.425       .  A
C2683     Br2691   1.923       .  S
C2684      C2685   1.415       .  A
C2685      C2686   1.398       .  A
C2685      H2688   1.074       .  S
C2686     Br2692   1.920       .  S
C2693      C2694   1.419       .  A
C2693      C2698   1.410       .  A
C2694      C2695   1.402       .  A
C2694     Br2710   1.921       .  S
C2695      C2696   1.400       .  A
C2695      H2699   1.084       .  S
C2696      C2700   1.474       .  S
C2696      C2697   1.403       .  A
C2697      C2698   1.396       .  A
C2697     Br2709   1.920       .  S
C2698      H2701   1.083       .  S
C2700      C2702   1.399       .  A
C2700      C2706   1.407       .  A
C2702      C2703   1.397       .  A
C2702      H2707   1.084       .  S
C2703      C2704   1.413       .  A
C2703     Br2711   1.921       .  S
C2704      C2705   1.403       .  A
C2705      C2706   1.400       .  A
C2705      H2708   1.081       .  S
C2706     Br2712   1.918       .  S
C2713      C2714   1.408       .  A
C2713      C2718   1.399       .  A
C2714      C2715   1.396       .  A
C2714     Br2730   1.921       .  S
C2715      C2716   1.399       .  A
C2715      H2719   1.083       .  S
C2716      C2720   1.472       .  S
C2716      C2717   1.411       .  A
C2717      C2718   1.398       .  A
C2717     Br2729   1.919       .  S
C2718      H2721   1.084       .  S
C2720      C2722   1.400       .  A
C2720      C2726   1.406       .  A
C2722      C2723   1.399       .  A
C2722      H2727   1.084       .  S
C2723      C2724   1.411       .  A
C2723     Br2731   1.913       .  S
C2724      C2725   1.405       .  A
C2725      C2726   1.394       .  A
C2725      H2728   1.084       .  S
C2726     Br2732   1.920       .  S
C2733      C2734   1.409       .  A
C2733      C2738   1.407       .  A
C2734      C2735   1.399       .  A
C2734     Br2750   1.917       .  S
C2735      C2736   1.402       .  A
C2735      H2739   1.084       .  S
C2736      C2740   1.470       .  S
C2736      C2737   1.403       .  A
C2737      C2738   1.393       .  A
C2737     Br2749   1.920       .  S
C2738      H2741   1.084       .  S
C2740      C2742   1.400       .  A
C2740      C2746   1.404       .  A
C2742      C2743   1.396       .  A
C2742      H2747   1.084       .  S
C2743      C2744   1.413       .  A
C2743     Br2751   1.922       .  S
C2744      C2745   1.407       .  A
C2745      C2746   1.397       .  A
C2745      H2748   1.083       .  S
C2746     Br2752   1.918       .  S
C2753      C2754   1.415       .  A
C2753      C2758   1.407       .  A
C2754      C2755   1.398       .  A
C2754     Br2770   1.921       .  S
C2755      C2756   1.400       .  A
C2755      H2759   1.084       .  S
C2756      C2760   1.481       .  S
C2756      C2757   1.409       .  A
C2757      C2758   1.401       .  A
C2757     Br2769   1.919       .  S
C2758      H2761   1.083       .  S
C2760      C2762   1.403       .  A
C2760      C2766   1.408       .  A
C2762      C2763   1.401       .  A
C2762      H2767   1.084       .  S
C2763      C2764   1.411       .  A
C2763     Br2771   1.916       .  S
C2764      C2765   1.406       .  A
C2765      C2766   1.398       .  A
C2765      H2768   1.083       .  S
C2766     Br2772   1.920       .  S
C2773      C2774   1.411       .  A
C2773      C2778   1.406       .  A
C2774      C2775   1.403       .  A
C2774     Br2790   1.917       .  S
C2775      C2776   1.404       .  A
C2775      H2779   1.083       .  S
C2776      C2780   1.481       .  S
C2776      C2777   1.407       .  A
C2777      C2778   1.398       .  A
C2777     Br2789   1.918       .  S
C2778      H2781   1.083       .  S
C2780      C2782   1.401       .  A
C2780      C2786   1.407       .  A
C2782      C2783   1.400       .  A
C2782      H2787   1.084       .  S
C2783      C2784   1.416       .  A
C2783     Br2791   1.921       .  S
C2784      C2785   1.408       .  A
C2785      C2786   1.403       .  A
C2785      H2788   1.083       .  S
C2786     Br2792   1.918       .  S
C2793      C2794   1.419       .  A
C2793      C2798   1.409       .  A
C2794      C2795   1.398       .  A
C2794     Br2810   1.923       .  S
C2795      C2796   1.398       .  A
C2795      H2799   1.084       .  S
C2796      C2800   1.485       .  S
C2796      C2797   1.410       .  A
C2797      C2798   1.406       .  A
C2797     Br2809   1.918       .  S
C2798      H2801   1.083       .  S
C2800      C2802   1.404       .  A
C2800      C2806   1.408       .  A
C2802      C2803   1.403       .  A
C2802      H2807   1.083       .  S
C2803      C2804   1.411       .  A
C2803     Br2811   1.916       .  S
C2804      C2805   1.408       .  A
C2805      C2806   1.401       .  A
C2805      H2808   1.083       .  S
C2806     Br2812   1.918       .  S
C2813      C2814   1.413       .  A
C2813      C2818   1.406       .  A
C2814      C2815   1.406       .  A
C2814     Br2830   1.917       .  S
C2815      C2816   1.405       .  A
C2815      H2819   1.083       .  S
C2816      C2820   1.487       .  S
C2816      C2817   1.407       .  A
C2817      C2818   1.399       .  A
C2817     Br2829   1.919       .  S
C2818      H2821   1.083       .  S
C2820      C2822   1.402       .  A
C2820      C2826   1.407       .  A
C2822      C2823   1.402       .  A
C2822      H2827   1.084       .  S
C2823      C2824   1.421       .  A
C2823     Br2831   1.923       .  S
C2824      C2825   1.410       .  A
C2825      C2826   1.403       .  A
C2825      H2828   1.083       .  S
C2826     Br2832   1.918       .  S
C2833      C2834   1.415       .  A
C2833      C2838   1.401       .  A
C2834      C2835   1.404       .  A
C2834     Br2850   1.920       .  S
C2835      C2836   1.405       .  A
C2835      H2839   1.083       .  S
C2836      C2840   1.495       .  S
C2836      C2837   1.413       .  A
C2837      C2838   1.401       .  A
C2837     Br2849   1.920       .  S
C2838      H2841   1.079       .  S
C2840      C2842   1.401       .  A
C2840      C2846   1.411       .  A
C2842      C2843   1.400       .  A
C2842      H2847   1.084       .  S
C2843      C2844   1.423       .  A
C2843     Br2851   1.923       .  S
C2844      C2845   1.411       .  A
C2845      C2846   1.406       .  A
C2845      H2848   1.083       .  S
C2846     Br2852   1.919       .  S
C2853      C2854   1.425       .  A
C2853      C2858   1.414       .  A
C2854      C2855   1.398       .  A
C2854     Br2870   1.925       .  S
C2855      C2856   1.396       .  A
C2855      H2859   1.084       .  S
C2856      C2860   1.477       .  S
C2856      C2857   1.403       .  A
C2857      C2858   1.401       .  A
C2857     Br2869   1.919       .  S
C2858      H2861   1.076       .  S
C2860      C2862   1.400       .  A
C2860      C2866   1.405       .  A
C2862      C2863   1.399       .  A
C2862      H2867   1.084       .  S
C2863      C2864   1.415       .  A
C2863     Br2871   1.921       .  S
C2864      C2865   1.410       .  A
C2865      C2866   1.400       .  A
C2865      H2868   1.083       .  S
C2866     Br2872   1.918       .  S
C2873      C2874   1.410       .  A
C2873      C2878   1.404       .  A
C2874      C2875   1.400       .  A
C2874     Br2890   1.919       .  S
C2875      C2876   1.402       .  A
C2875      H2879   1.083       .  S
C2876      C2880   1.480       .  S
C2876      C2877   1.408       .  A
C2877      C2878   1.402       .  A
C2877     Br2889   1.918       .  S
C2878      H2881   1.084       .  S
C2880      C2882   1.399       .  A
C2880      C2886   1.408       .  A
C2882      C2883   1.398       .  A
C2882      H2887   1.084       .  S
C2883      C2884   1.417       .  A
C2883     Br2891   1.922       .  S
C2884      C2885   1.406       .  A
C2885      C2886   1.404       .  A
C2885      H2888   1.083       .  S
C2886     Br2892   1.917       .  S
C2893      C2894   1.412       .  A
C2893      C2898   1.408       .  A
C2894      C2895   1.401       .  A
C2894     Br2910   1.916       .  S
C2895      C2896   1.403       .  A
C2895      H2899   1.084       .  S
C2896      C2900   1.483       .  S
C2896      C2897   1.406       .  A
C2897      C2898   1.400       .  A
C2897     Br2909   1.918       .  S
C2898      H2901   1.083       .  S
C2900      C2902   1.403       .  A
C2900      C2906   1.406       .  A
C2902      C2903   1.404       .  A
C2902      H2907   1.083       .  S
C2903      C2904   1.416       .  A
C2903     Br2911   1.920       .  S
C2904      C2905   1.409       .  A
C2905      C2906   1.400       .  A
C2905      H2908   1.083       .  S
C2906     Br2912   1.919       .  S
C2913      C2914   1.423       .  A
C2913      C2918   1.412       .  A
C2914      C2915   1.396       .  A
C2914     Br2930   1.926       .  S
C2915      C2916   1.398       .  A
C2915      H2919   1.084       .  S
C2916      C2920   1.481       .  S
C2916      C2917   1.406       .  A
C2917      C2918   1.400       .  A
C2917     Br2929   1.920       .  S
C2918      H2921   1.077       .  S
C2920      C2922   1.402       .  A
C2920      C2926   1.412       .  A
C2922      C2923   1.397       .  A
C2922      H2927   1.084       .  S
C2923      C2924   1.410       .  A
C2923     Br2931   1.921       .  S
C2924      C2925   1.401       .  A
C2925      C2926   1.400       .  A
C2925      H2928   1.084       .  S
C2926     Br2932   1.920       .  S
C2933      C2934   1.413       .  A
C2933      C2938   1.405       .  A
C2934      C2935   1.397       .  A
C2934     Br2950   1.923       .  S
C2935      C2936   1.402       .  A
C2935      H2939   1.084       .  S
C2936      C2940   1.480       .  S
C2936      C2937   1.409       .  A
C2937      C2938   1.401       .  A
C2937     Br2949   1.918       .  S
C2938      H2941   1.083       .  S
C2940      C2942   1.401       .  A
C2940      C2946   1.410       .  A
C2942      C2943   1.397       .  A
C2942      H2947   1.084       .  S
C2943      C2944   1.412       .  A
C2943     Br2951   1.920       .  S
C2944      C2945   1.403       .  A
C2945      C2946   1.401       .  A
C2945      H2948   1.084       .  S
C2946     Br2952   1.918       .  S
C2953      C2954   1.407       .  A
C2953      C2958   1.401       .  A
C2954      C2955   1.401       .  A
C2954     Br2970   1.916       .  S
C2955      C2956   1.404       .  A
C2955      H2959   1.083       .  S
C2956      C2960   1.480       .  S
C2956      C2957   1.409       .  A
C2957      C2958   1.398       .  A
C2957     Br2969   1.920       .  S
C2958      H2961   1.082       .  S
C2960      C2962   1.403       .  A
C2960      C2966   1.406       .  A
C2962      C2963   1.403       .  A
C2962      H2967   1.083       .  S
C2963      C2964   1.415       .  A
C2963     Br2971   1.920       .  S
C2964      C2965   1.408       .  A
C2965      C2966   1.395       .  A
C2965      H2968   1.083       .  S
C2966     Br2972   1.921       .  S
C2973      C2974   1.426       .  A
C2973      C2978   1.414       .  A
C2974      C2975   1.400       .  A
C2974     Br2990   1.926       .  S
C2975      C2976   1.397       .  A
C2975      H2979   1.084       .  S
C2976      C2980   1.484       .  S
C2976      C2977   1.405       .  A
C2977      C2978   1.403       .  A
C2977     Br2989   1.919       .  S
C2978      H2981   1.076       .  S
C2980      C2982   1.403       .  A
C2980      C2986   1.410       .  A
C2982      C2983   1.403       .  A
C2982      H2987   1.083       .  S
C2983      C2984   1.409       .  A
C2983     Br2991   1.918       .  S
C2984      C2985   1.404       .  A
C2985      C2986   1.402       .  A
C2985      H2988   1.084       .  S
C2986     Br2992   1.919       .  S
C2993      C2994   1.416       .  A
C2993      C2998   1.407       .  A
C2994      C2995   1.401       .  A
C2994     Br3010   1.922       .  S
C2995      C2996   1.402       .  A
C2995      H2999   1.084       .  S
C2996      C3000   1.484       .  S
C2996      C2997   1.409       .  A
C2997      C2998   1.401       .  A
C2997     Br3009   1.919       .  S
C2998      H3001   1.083       .  S
C3000      C3002   1.401       .  A
C3000      C3006   1.410       .  A
C3002      C3003   1.398       .  A
C3002      H3007   1.084       .  S
C3003      C3004   1.414       .  A
C3003     Br3011   1.922       .  S
C3004      C3005   1.404       .  A
C3005      C3006   1.403       .  A
C3005      H3008   1.083       .  S
C3006     Br3012   1.918       .  S
C3013      C3014   1.412       .  A
C3013      C3018   1.402       .  A
C3014      C3015   1.403       .  A
C3014     Br3030   1.920       .  S
C3015      C3016   1.403       .  A
C3015      H3019   1.083       .  S
C3016      C3020   1.483       .  S
C3016      C3017   1.411       .  A
C3017      C3018   1.399       .  A
C3017     Br3029   1.920       .  S
C3018      H3021   1.084       .  S
C3020      C3022   1.403       .  A
C3020      C3026   1.407       .  A
C3022      C3023   1.403       .  A
C3022      H3027   1.084       .  S
C3023      C3024   1.410       .  A
C3023     Br3031   1.910       .  S
C3024      C3025   1.407       .  A
C3025      C3026   1.400       .  A
C3025      H3028   1.083       .  S
C3026     Br3032   1.918       .  S
C3033      C3034   1.415       .  A
C3033      C3038   1.407       .  A
C3034      C3035   1.392       .  A
C3034     Br3050   1.924       .  S
C3035      C3036   1.397       .  A
C3035      H3039   1.084       .  S
C3036      C3040   1.471       .  S
C3036      C3037   1.407       .  A
C3037      C3038   1.402       .  A
C3037     Br3049   1.918       .  S
C3038      H3041   1.083       .  S
C3040      C3042   1.404       .  A
C3040      C3046   1.402       .  A
C3042      C3043   1.400       .  A
C3042      H3047   1.084       .  S
C3043      C3044   1.410       .  A
C3043     Br3051   1.918       .  S
C3044      C3045   1.409       .  A
C3045      C3046   1.392       .  A
C3045      H3048   1.083       .  S
C3046     Br3052   1.919       .  S
C3053      C3054   1.415       .  A
C3053      C3058   1.407       .  A
C3054      C3055   1.396       .  A
C3054     Br3070   1.911       .  S
C3055      C3056   1.397       .  A
C3055      H3059   1.084       .  S
C3056      C3060   1.478       .  S
C3056      C3057   1.408       .  A
C3057      C3058   1.402       .  A
C3057     Br3069   1.918       .  S
C3058      H3061   1.083       .  S
C3060      C3062   1.403       .  A
C3060      C3066   1.407       .  A
C3062      C3063   1.400       .  A
C3062      H3067   1.084       .  S
C3063      C3064   1.411       .  A
C3063     Br3071   1.920       .  S
C3064      C3065   1.405       .  A
C3065      C3066   1.398       .  A
C3065      H3068   1.084       .  S
C3066     Br3072   1.919       .  S
C3073      C3074   1.419       .  A
C3073      C3078   1.408       .  A
C3074      C3075   1.403       .  A
C3074     Br3090   1.923       .  S
C3075      C3076   1.403       .  A
C3075      H3079   1.084       .  S
C3076      C3080   1.489       .  S
C3076      C3077   1.409       .  A
C3077      C3078   1.401       .  A
C3077     Br3089   1.919       .  S
C3078      H3081   1.083       .  S
C3080      C3082   1.405       .  A
C3080      C3086   1.409       .  A
C3082      C3083   1.404       .  A
C3082      H3087   1.083       .  S
C3083      C3084   1.412       .  A
C3083     Br3091   1.917       .  S
C3084      C3085   1.406       .  A
C3085      C3086   1.400       .  A
C3085      H3088   1.083       .  S
C3086     Br3092   1.919       .  S
C3093      C3094   1.414       .  A
C3093      C3098   1.408       .  A
C3094      C3095   1.398       .  A
C3094     Br3110   1.914       .  S
C3095      C3096   1.399       .  A
C3095      H3099   1.084       .  S
C3096      C3100   1.476       .  S
C3096      C3097   1.404       .  A
C3097      C3098   1.400       .  A
C3097     Br3109   1.917       .  S
C3098      H3101   1.083       .  S
C3100      C3102   1.399       .  A
C3100      C3106   1.406       .  A
C3102      C3103   1.399       .  A
C3102      H3107   1.084       .  S
C3103      C3104   1.416       .  A
C3103     Br3111   1.922       .  S
C3104      C3105   1.405       .  A
C3105      C3106   1.399       .  A
C3105      H3108   1.083       .  S
C3106     Br3112   1.918       .  S
C3113      C3114   1.425       .  A
C3113      C3118   1.414       .  A
C3114      C3115   1.399       .  A
C3114     Br3130   1.926       .  S
C3115      C3116   1.397       .  A
C3115      H3119   1.084       .  S
C3116      C3120   1.480       .  S
C3116      C3117   1.404       .  A
C3117      C3118   1.402       .  A
C3117     Br3129   1.918       .  S
C3118      H3121   1.076       .  S
C3120      C3122   1.401       .  A
C3120      C3126   1.407       .  A
C3122      C3123   1.402       .  A
C3122      H3127   1.083       .  S
C3123      C3124   1.417       .  A
C3123     Br3131   1.922       .  S
C3124      C3125   1.406       .  A
C3125      C3126   1.400       .  A
C3125      H3128   1.083       .  S
C3126     Br3132   1.918       .  S
C3133      C3134   1.408       .  A
C3133      C3138   1.405       .  A
C3134      C3135   1.400       .  A
C3134     Br3150   1.917       .  S
C3135      C3136   1.405       .  A
C3135      H3139   1.083       .  S
C3136      C3140   1.480       .  S
C3136      C3137   1.407       .  A
C3137      C3138   1.395       .  A
C3137     Br3149   1.920       .  S
C3138      H3141   1.083       .  S
C3140      C3142   1.403       .  A
C3140      C3146   1.408       .  A
C3142      C3143   1.396       .  A
C3142      H3147   1.084       .  S
C3143      C3144   1.409       .  A
C3143     Br3151   1.921       .  S
C3144      C3145   1.405       .  A
C3145      C3146   1.400       .  A
C3145      H3148   1.084       .  S
C3146     Br3152   1.919       .  S
C3153      C3154   1.411       .  A
C3153      C3158   1.405       .  A
C3154      C3155   1.401       .  A
C3154     Br3170   1.918       .  S
C3155      C3156   1.404       .  A
C3155      H3159   1.083       .  S
C3156      C3160   1.482       .  S
C3156      C3157   1.407       .  A
C3157      C3158   1.398       .  A
C3157     Br3169   1.918       .  S
C3158      H3161   1.083       .  S
C3160      C3162   1.402       .  A
C3160      C3166   1.404       .  A
C3162      C3163   1.402       .  A
C3162      H3167   1.084       .  S
C3163      C3164   1.419       .  A
C3163     Br3171   1.921       .  S
C3164      C3165   1.413       .  A
C3165      C3166   1.398       .  A
C3165      H3168   1.083       .  S
C3166     Br3172   1.920       .  S
C3173      C3174   1.413       .  A
C3173      C3178   1.405       .  A
C3174      C3175   1.399       .  A
C3174     Br3190   1.920       .  S
C3175      C3176   1.401       .  A
C3175      H3179   1.084       .  S
C3176      C3180   1.473       .  S
C3176      C3177   1.405       .  A
C3177      C3178   1.396       .  A
C3177     Br3189   1.919       .  S
C3178      H3181   1.083       .  S
C3180      C3182   1.400       .  A
C3180      C3186   1.406       .  A
C3182      C3183   1.398       .  A
C3182      H3187   1.084       .  S
C3183      C3184   1.414       .  A
C3183     Br3191   1.922       .  S
C3184      C3185   1.405       .  A
C3185      C3186   1.398       .  A
C3185      H3188   1.083       .  S
C3186     Br3192   1.919       .  S
C3193      C3194   1.424       .  A
C3193      C3198   1.414       .  A
C3194      C3195   1.394       .  A
C3194     Br3210   1.926       .  S
C3195      C3196   1.394       .  A
C3195      H3199   1.084       .  S
C3196      C3200   1.471       .  S
C3196      C3197   1.401       .  A
C3197      C3198   1.400       .  A
C3197     Br3209   1.918       .  S
C3198      H3201   1.076       .  S
C3200      C3202   1.401       .  A
C3200      C3206   1.403       .  A
C3202      C3203   1.398       .  A
C3202      H3207   1.084       .  S
C3203      C3204   1.413       .  A
C3203     Br3211   1.921       .  S
C3204      C3205   1.407       .  A
C3205      C3206   1.397       .  A
C3205      H3208   1.084       .  S
C3206     Br3212   1.918       .  S
C3213      C3214   1.417       .  A
C3213      C3218   1.409       .  A
C3214      C3215   1.403       .  A
C3214     Br3230   1.921       .  S
C3215      C3216   1.404       .  A
C3215      H3219   1.083       .  S
C3216      C3220   1.484       .  S
C3216      C3217   1.406       .  A
C3217      C3218   1.396       .  A
C3217     Br3229   1.921       .  S
C3218      H3221   1.083       .  S
C3220      C3222   1.404       .  A
C3220      C3226   1.408       .  A
C3222      C3223   1.399       .  A
C3222      H3227   1.084       .  S
C3223      C3224   1.411       .  A
C3223     Br3231   1.916       .  S
C3224      C3225   1.407       .  A
C3225      C3226   1.400       .  A
C3225      H3228   1.083       .  S
C3226     Br3232   1.919       .  S
C3233      C3234   1.413       .  A
C3233      C3238   1.406       .  A
C3234      C3235   1.406       .  A
C3234     Br3250   1.917       .  S
C3235      C3236   1.404       .  A
C3235      H3239   1.083       .  S
C3236      C3240   1.477       .  S
C3236      C3237   1.405       .  A
C3237      C3238   1.393       .  A
C3237     Br3249   1.921       .  S
C3238      H3241   1.083       .  S
C3240      C3242   1.403       .  A
C3240      C3246   1.405       .  A
C3242      C3243   1.402       .  A
C3242      H3247   1.084       .  S
C3243      C3244   1.412       .  A
C3243     Br3251   1.919       .  S
C3244      C3245   1.407       .  A
C3245      C3246   1.397       .  A
C3245      H3248   1.084       .  S
C3246     Br3252   1.919       .  S
C3253      C3254   1.414       .  A
C3253      C3258   1.409       .  A
C3254      C3255   1.400       .  A
C3254     Br3270   1.917       .  S
C3255      C3256   1.403       .  A
C3255      H3259   1.084       .  S
C3256      C3260   1.488       .  S
C3256      C3257   1.408       .  A
C3257      C3258   1.403       .  A
C3257     Br3269   1.918       .  S
C3258      H3261   1.083       .  S
C3260      C3262   1.405       .  A
C3260      C3266   1.407       .  A
C3262      C3263   1.407       .  A
C3262      H3267   1.083       .  S
C3263      C3264   1.417       .  A
C3263     Br3271   1.920       .  S
C3264      C3265   1.407       .  A
C3265      C3266   1.397       .  A
C3265      H3268   1.083       .  S
C3266     Br3272   1.921       .  S
C3273      C3274   1.411       .  A
C3273      C3278   1.407       .  A
C3274      C3275   1.398       .  A
C3274     Br3290   1.920       .  S
C3275      C3276   1.403       .  A
C3275      H3279   1.084       .  S
C3276      C3280   1.488       .  S
C3276      C3277   1.411       .  A
C3277      C3278   1.404       .  A
C3277     Br3289   1.919       .  S
C3278      H3281   1.083       .  S
C3280      C3282   1.399       .  A
C3280      C3286   1.408       .  A
C3282      C3283   1.400       .  A
C3282      H3287   1.084       .  S
C3283      C3284   1.426       .  A
C3283     Br3291   1.926       .  S
C3284      C3285   1.411       .  A
C3285      C3286   1.401       .  A
C3285      H3288   1.076       .  S
C3286     Br3292   1.920       .  S
C3293      C3294   1.418       .  A
C3293      C3298   1.410       .  A
C3294      C3295   1.399       .  A
C3294     Br3310   1.915       .  S
C3295      C3296   1.399       .  A
C3295      H3299   1.084       .  S
C3296      C3300   1.481       .  S
C3296      C3297   1.405       .  A
C3297      C3298   1.401       .  A
C3297     Br3309   1.917       .  S
C3298      H3301   1.083       .  S
C3300      C3302   1.402       .  A
C3300      C3306   1.406       .  A
C3302      C3303   1.401       .  A
C3302      H3307   1.084       .  S
C3303      C3304   1.416       .  A
C3303     Br3311   1.921       .  S
C3304      C3305   1.409       .  A
C3305      C3306   1.401       .  A
C3305      H3308   1.083       .  S
C3306     Br3312   1.918       .  S
C3313      C3314   1.420       .  A
C3313      C3318   1.408       .  A
C3314      C3315   1.397       .  A
C3314     Br3330   1.923       .  S
C3315      C3316   1.397       .  A
C3315      H3319   1.084       .  S
C3316      C3320   1.468       .  S
C3316      C3317   1.403       .  A
C3317      C3318   1.396       .  A
C3317     Br3329   1.919       .  S
C3318      H3321   1.083       .  S
C3320      C3322   1.398       .  A
C3320      C3326   1.398       .  A
C3322      C3323   1.402       .  A
C3322      H3327   1.083       .  S
C3323      C3324   1.423       .  A
C3323     Br3331   1.923       .  S
C3324      C3325   1.415       .  A
C3325      C3326   1.389       .  A
C3325      H3328   1.072       .  S
C3326     Br3332   1.923       .  S
C3333      C3334   1.412       .  A
C3333      C3338   1.408       .  A
C3334      C3335   1.395       .  A
C3334     Br3350   1.908       .  S
C3335      C3336   1.397       .  A
C3335      H3339   1.084       .  S
C3336      C3340   1.477       .  S
C3336      C3337   1.407       .  A
C3337      C3338   1.403       .  A
C3337     Br3349   1.917       .  S
C3338      H3341   1.083       .  S
C3340      C3342   1.397       .  A
C3340      C3346   1.406       .  A
C3342      C3343   1.397       .  A
C3342      H3347   1.084       .  S
C3343      C3344   1.423       .  A
C3343     Br3351   1.925       .  S
C3344      C3345   1.410       .  A
C3345      C3346   1.400       .  A
C3345      H3348   1.083       .  S
C3346     Br3352   1.919       .  S
C3353      C3354   1.425       .  A
C3353      C3358   1.415       .  A
C3354      C3355   1.401       .  A
C3354     Br3370   1.925       .  S
C3355      C3356   1.397       .  A
C3355      H3359   1.084       .  S
C3356      C3360   1.482       .  S
C3356      C3357   1.403       .  A
C3357      C3358   1.402       .  A
C3357     Br3369   1.918       .  S
C3358      H3361   1.075       .  S
C3360      C3362   1.401       .  A
C3360      C3366   1.407       .  A
C3362      C3363   1.404       .  A
C3362      H3367   1.083       .  S
C3363      C3364   1.418       .  A
C3363     Br3371   1.922   1_554  S
C3364      C3365   1.405       .  A
C3365      C3366   1.400       .  A
C3365      H3368   1.083       .  S
C3366     Br3372   1.919       .  S
C3373      C3374   1.415       .  A
C3373      C3378   1.407       .  A
C3374      C3375   1.396       .  A
C3374     Br3390   1.914       .  S
C3375      C3376   1.399       .  A
C3375      H3379   1.084       .  S
C3376      C3380   1.481       .  S
C3376      C3377   1.408       .  A
C3377      C3378   1.403       .  A
C3377     Br3389   1.917       .  S
C3378      H3381   1.083       .  S
C3380      C3382   1.401       .  A
C3380      C3386   1.409       .  A
C3382      C3383   1.400       .  A
C3382      H3387   1.084       .  S
C3383      C3384   1.411       .  A
C3383     Br3391   1.915       .  S
C3384      C3385   1.405       .  A
C3385      C3386   1.403       .  A
C3385      H3388   1.083       .  S
C3386     Br3392   1.918       .  S
C3393      C3394   1.421       .  A
C3393      C3398   1.409       .  A
C3394      C3395   1.397       .  A
C3394     Br3410   1.924   1_455  S
C3395      C3396   1.400       .  A
C3395      H3399   1.084       .  S
C3396      C3400   1.480       .  S
C3396      C3397   1.408       .  A
C3397      C3398   1.399       .  A
C3397     Br3409   1.921       .  S
C3398      H3401   1.083       .  S
C3400      C3402   1.396       .  A
C3400      C3406   1.406       .  A
C3402      C3403   1.392       .  A
C3402      H3407   1.084       .  S
C3403      C3404   1.423       .  A
C3403     Br3411   1.921       .  S
C3404      C3405   1.413       .  A
C3405      C3406   1.402       .  A
C3405      H3408   1.077       .  S
C3406     Br3412   1.919       .  S
C3413      C3414   1.409       .  A
C3413      C3418   1.404       .  A
C3414      C3415   1.397       .  A
C3414     Br3430   1.913       .  S
C3415      C3416   1.400       .  A
C3415      H3419   1.084       .  S
C3416      C3420   1.474       .  S
C3416      C3417   1.407       .  A
C3417      C3418   1.398       .  A
C3417     Br3429   1.918       .  S
C3418      H3421   1.084       .  S
C3420      C3422   1.399       .  A
C3420      C3426   1.408       .  A
C3422      C3423   1.397       .  A
C3422      H3427   1.084       .  S
C3423      C3424   1.415       .  A
C3423     Br3431   1.922       .  S
C3424      C3425   1.405       .  A
C3425      C3426   1.399       .  A
C3425      H3428   1.083       .  S
C3426     Br3432   1.919       .  S
C3433      C3434   1.415       .  A
C3433      C3438   1.408       .  A
C3434      C3435   1.405       .  A
C3434     Br3450   1.920   1_655  S
C3435      C3436   1.404       .  A
C3435      H3439   1.083       .  S
C3436      C3440   1.486       .  S
C3436      C3437   1.407       .  A
C3437      C3438   1.399       .  A
C3437     Br3449   1.920       .  S
C3438      H3441   1.083       .  S
C3440      C3442   1.400       .  A
C3440      C3446   1.409       .  A
C3442      C3443   1.401       .  A
C3442      H3447   1.084       .  S
C3443      C3444   1.419       .  A
C3443     Br3451   1.916       .  S
C3444      C3445   1.407       .  A
C3445      C3446   1.402       .  A
C3445      H3448   1.083       .  S
C3446     Br3452   1.919       .  S
C3453      C3454   1.426       .  A
C3453      C3458   1.415       .  A
C3454      C3455   1.399       .  A
C3454     Br3470   1.922       .  S
C3455      C3456   1.396       .  A
C3455      H3459   1.084       .  S
C3456      C3460   1.483       .  S
C3456      C3457   1.404       .  A
C3457      C3458   1.404       .  A
C3457     Br3469   1.918       .  S
C3458      H3461   1.076       .  S
C3460      C3462   1.402       .  A
C3460      C3466   1.406       .  A
C3462      C3463   1.403       .  A
C3462      H3467   1.084       .  S
C3463      C3464   1.415       .  A
C3463     Br3471   1.922       .  S
C3464      C3465   1.407       .  A
C3465      C3466   1.401       .  A
C3465      H3468   1.083       .  S
C3466     Br3472   1.918       .  S
C3473      C3474   1.420       .  A
C3473      C3478   1.409       .  A
C3474      C3475   1.402       .  A
C3474     Br3490   1.918       .  S
C3475      C3476   1.401       .  A
C3475      H3479   1.084       .  S
C3476      C3480   1.479       .  S
C3476      C3477   1.403       .  A
C3477      C3478   1.396       .  A
C3477     Br3489   1.919       .  S
C3478      H3481   1.083       .  S
C3480      C3482   1.402       .  A
C3480      C3486   1.407       .  A
C3482      C3483   1.399       .  A
C3482      H3487   1.084       .  S
C3483      C3484   1.414       .  A
C3483     Br3491   1.921       .  S
C3484      C3485   1.408       .  A
C3485      C3486   1.398       .  A
C3485      H3488   1.084       .  S
C3486     Br3492   1.920       .  S
C3493      C3494   1.416       .  A
C3493      C3498   1.408       .  A
C3494      C3495   1.397       .  A
C3494     Br3510   1.914       .  S
C3495      C3496   1.398       .  A
C3495      H3499   1.084       .  S
C3496      C3500   1.482       .  S
C3496      C3497   1.408       .  A
C3497      C3498   1.405       .  A
C3497     Br3509   1.918       .  S
C3498      H3501   1.083       .  S
C3500      C3502   1.403       .  A
C3500      C3506   1.408       .  A
C3502      C3503   1.403       .  A
C3502      H3507   1.083       .  S
C3503      C3504   1.414       .  A
C3503     Br3511   1.921       .  S
C3504      C3505   1.405       .  A
C3505      C3506   1.400       .  A
C3505      H3508   1.083       .  S
C3506     Br3512   1.919       .  S
C3513      C3514   1.410       .  A
C3513      C3518   1.403       .  A
C3514      C3515   1.401       .  A
C3514     Br3530   1.919       .  S
C3515      C3516   1.405       .  A
C3515      H3519   1.083       .  S
C3516      C3520   1.483       .  S
C3516      C3517   1.409       .  A
C3517      C3518   1.397       .  A
C3517     Br3529   1.920       .  S
C3518      H3521   1.083       .  S
C3520      C3522   1.405       .  A
C3520      C3526   1.407       .  A
C3522      C3523   1.403       .  A
C3522      H3527   1.083       .  S
C3523      C3524   1.413       .  A
C3523     Br3531   1.920       .  S
C3524      C3525   1.407       .  A
C3525      C3526   1.396       .  A
C3525      H3528   1.084       .  S
C3526     Br3532   1.920       .  S
C3533      C3534   1.410       .  A
C3533      C3538   1.404       .  A
C3534      C3535   1.402       .  A
C3534     Br3550   1.919       .  S
C3535      C3536   1.403       .  A
C3535      H3539   1.083       .  S
C3536      C3540   1.482       .  S
C3536      C3537   1.408       .  A
C3537      C3538   1.402       .  A
C3537     Br3549   1.918       .  S
C3538      H3541   1.084       .  S
C3540      C3542   1.398       .  A
C3540      C3546   1.408       .  A
C3542      C3543   1.399       .  A
C3542      H3547   1.084       .  S
C3543      C3544   1.419       .  A
C3543     Br3551   1.918       .  S
C3544      C3545   1.409       .  A
C3545      C3546   1.405       .  A
C3545      H3548   1.083       .  S
C3546     Br3552   1.917       .  S
C3553      C3554   1.411       .  A
C3553      C3558   1.403       .  A
C3554      C3555   1.399       .  A
C3554     Br3570   1.919       .  S
C3555      C3556   1.401       .  A
C3555      H3559   1.083       .  S
C3556      C3560   1.473       .  S
C3556      C3557   1.406       .  A
C3557      C3558   1.396       .  A
C3557     Br3569   1.918       .  S
C3558      H3561   1.083       .  S
C3560      C3562   1.397       .  A
C3560      C3566   1.405       .  A
C3562      C3563   1.397       .  A
C3562      H3567   1.084       .  S
C3563      C3564   1.420       .  A
C3563     Br3571   1.925       .  S
C3564      C3565   1.408       .  A
C3565      C3566   1.400       .  A
C3565      H3568   1.083       .  S
C3566     Br3572   1.918       .  S
C3573      C3574   1.417       .  A
C3573      C3578   1.406       .  A
C3574      C3575   1.402       .  A
C3574     Br3590   1.922       .  S
C3575      C3576   1.401       .  A
C3575      H3579   1.084       .  S
C3576      C3580   1.483       .  S
C3576      C3577   1.408       .  A
C3577      C3578   1.401       .  A
C3577     Br3589   1.919       .  S
C3578      H3581   1.083       .  S
C3580      C3582   1.398       .  A
C3580      C3586   1.404       .  A
C3582      C3583   1.400       .  A
C3582      H3587   1.084       .  S
C3583      C3584   1.423       .  A
C3583     Br3591   1.924       .  S
C3584      C3585   1.416       .  A
C3585      C3586   1.401       .  A
C3585      H3588   1.075       .  S
C3586     Br3592   1.919       .  S
C3593      C3594   1.425       .  A
C3593      C3598   1.414       .  A
C3594      C3595   1.397       .  A
C3594     Br3610   1.926       .  S
C3595      C3596   1.396       .  A
C3595      H3599   1.084       .  S
C3596      C3600   1.476       .  S
C3596      C3597   1.403       .  A
C3597      C3598   1.399       .  A
C3597     Br3609   1.920       .  S
C3598      H3601   1.075       .  S
C3600      C3602   1.404       .  A
C3600      C3606   1.406       .  A
C3602      C3603   1.399       .  A
C3602      H3607   1.084       .  S
C3603      C3604   1.408       .  A
C3603     Br3611   1.919       .  S
C3604      C3605   1.403       .  A
C3605      C3606   1.397       .  A
C3605      H3608   1.084       .  S
C3606     Br3612   1.918       .  S
C3613      C3614   1.422       .  A
C3613      C3618   1.410       .  A
C3614      C3615   1.401       .  A
C3614     Br3630   1.923   1_455  S
C3615      C3616   1.399       .  A
C3615      H3619   1.084       .  S
C3616      C3620   1.481       .  S
C3616      C3617   1.406       .  A
C3617      C3618   1.400       .  A
C3617     Br3629   1.919       .  S
C3618      H3621   1.083       .  S
C3620      C3622   1.401       .  A
C3620      C3626   1.401       .  A
C3622      C3623   1.406       .  A
C3622      H3627   1.083       .  S
C3623      C3624   1.422       .  A
C3623     Br3631   1.918       .  S
C3624      C3625   1.416       .  A
C3625      C3626   1.395       .  A
C3625      H3628   1.077       .  S
C3626     Br3632   1.921       .  S
C3633      C3634   1.416       .  A
C3633      C3638   1.408       .  A
C3634      C3635   1.400       .  A
C3634     Br3650   1.916       .  S
C3635      C3636   1.400       .  A
C3635      H3639   1.084       .  S
C3636      C3640   1.484       .  S
C3636      C3637   1.408       .  A
C3637      C3638   1.403       .  A
C3637     Br3649   1.918       .  S
C3638      H3641   1.083       .  S
C3640      C3642   1.403       .  A
C3640      C3646   1.407       .  A
C3642      C3643   1.402       .  A
C3642      H3647   1.083       .  S
C3643      C3644   1.414       .  A
C3643     Br3651   1.920       .  S
C3644      C3645   1.407       .  A
C3645      C3646   1.400       .  A
C3645      H3648   1.083       .  S
C3646     Br3652   1.919       .  S
C3653      C3654   1.416       .  A
C3653      C3658   1.405       .  A
C3654      C3655   1.399       .  A
C3654     Br3670   1.922       .  S
C3655      C3656   1.399       .  A
C3655      H3659   1.084       .  S
C3656      C3660   1.479       .  S
C3656      C3657   1.410       .  A
C3657      C3658   1.401       .  A
C3657     Br3669   1.920       .  S
C3658      H3661   1.083       .  S
C3660      C3662   1.404       .  A
C3660      C3666   1.407       .  A
C3662      C3663   1.401       .  A
C3662      H3667   1.083       .  S
C3663      C3664   1.406       .  A
C3663     Br3671   1.917       .  S
C3664      C3665   1.404       .  A
C3665      C3666   1.398       .  A
C3665      H3668   1.084       .  S
C3666     Br3672   1.918       .  S
C3673      C3674   1.417       .  A
C3673      C3678   1.405       .  A
C3674      C3675   1.405       .  A
C3674     Br3690   1.919       .  S
C3675      C3676   1.402       .  A
C3675      H3679   1.083       .  S
C3676      C3680   1.481       .  S
C3676      C3677   1.407       .  A
C3677      C3678   1.397       .  A
C3677     Br3689   1.920       .  S
C3678      H3681   1.083       .  S
C3680      C3682   1.394       .  A
C3680      C3686   1.406       .  A
C3682      C3683   1.396       .  A
C3682      H3687   1.084       .  S
C3683      C3684   1.425       .  A
C3683     Br3691   1.919       .  S
C3684      C3685   1.414       .  A
C3685      C3686   1.405       .  A
C3685      H3688   1.077       .  S
C3686     Br3692   1.917       .  S
C3693      C3694   1.422       .  A
C3693      C3698   1.411       .  A
C3694      C3695   1.405       .  A
C3694     Br3710   1.922       .  S
C3695      C3696   1.402       .  A
C3695      H3699   1.084       .  S
C3696      C3700   1.488       .  S
C3696      C3697   1.407       .  A
C3697      C3698   1.402       .  A
C3697     Br3709   1.919       .  S
C3698      H3701   1.083       .  S
C3700      C3702   1.404       .  A
C3700      C3706   1.407       .  A
C3702      C3703   1.404       .  A
C3702      H3707   1.083       .  S
C3703      C3704   1.415       .  A
C3703     Br3711   1.918       .  S
C3704      C3705   1.409       .  A
C3705      C3706   1.401       .  A
C3705      H3708   1.083       .  S
C3706     Br3712   1.918       .  S
C3713      C3714   1.416       .  A
C3713      C3718   1.411       .  A
C3714      C3715   1.409       .  A
C3714     Br3730   1.919       .  S
C3715      C3716   1.405       .  A
C3715      H3719   1.083       .  S
C3716      C3720   1.489       .  S
C3716      C3717   1.405       .  A
C3717      C3718   1.400       .  A
C3717     Br3729   1.919       .  S
C3718      H3721   1.083       .  S
C3720      C3722   1.404       .  A
C3720      C3726   1.411       .  A
C3722      C3723   1.404       .  A
C3722      H3727   1.083       .  S
C3723      C3724   1.411       .  A
C3723     Br3731   1.918       .  S
C3724      C3725   1.403       .  A
C3725      C3726   1.404       .  A
C3725      H3728   1.084       .  S
C3726     Br3732   1.918       .  S
C3733      C3734   1.420       .  A
C3733      C3738   1.412       .  A
C3734      C3735   1.400       .  A
C3734     Br3750   1.922       .  S
C3735      C3736   1.399       .  A
C3735      H3739   1.084       .  S
C3736      C3740   1.473       .  S
C3736      C3737   1.401       .  A
C3737      C3738   1.396       .  A
C3737     Br3749   1.919       .  S
C3738      H3741   1.083       .  S
C3740      C3742   1.401       .  A
C3740      C3746   1.404       .  A
C3742      C3743   1.400       .  A
C3742      H3747   1.084       .  S
C3743      C3744   1.411       .  A
C3743     Br3751   1.916       .  S
C3744      C3745   1.407       .  A
C3745      C3746   1.396       .  A
C3745      H3748   1.084       .  S
C3746     Br3752   1.919       .  S
C3753      C3754   1.410       .  A
C3753      C3758   1.403       .  A
C3754      C3755   1.395       .  A
C3754     Br3770   1.922       .  S
C3755      C3756   1.403       .  A
C3755      H3759   1.084       .  S
C3756      C3760   1.477       .  S
C3756      C3757   1.409       .  A
C3757      C3758   1.398       .  A
C3757     Br3769   1.919       .  S
C3758      H3761   1.084       .  S
C3760      C3762   1.401       .  A
C3760      C3766   1.411       .  A
C3762      C3763   1.397       .  A
C3762      H3767   1.083       .  S
C3763      C3764   1.412       .  A
C3763     Br3771   1.922       .  S
C3764      C3765   1.398       .  A
C3765      C3766   1.396       .  A
C3765      H3768   1.080       .  S
C3766     Br3772   1.921       .  S
C3773      C3774   1.409       .  A
C3773      C3778   1.405       .  A
C3774      C3775   1.398       .  A
C3774     Br3790   1.918       .  S
C3775      C3776   1.402       .  A
C3775      H3779   1.084       .  S
C3776      C3780   1.482       .  S
C3776      C3777   1.410       .  A
C3777      C3778   1.403       .  A
C3777     Br3789   1.918       .  S
C3778      H3781   1.084       .  S
C3780      C3782   1.399       .  A
C3780      C3786   1.408       .  A
C3782      C3783   1.398       .  A
C3782      H3787   1.084       .  S
C3783      C3784   1.419       .  A
C3783     Br3791   1.924       .  S
C3784      C3785   1.409       .  A
C3785      C3786   1.404       .  A
C3785      H3788   1.083       .  S
C3786     Br3792   1.918       .  S
C3793      C3794   1.413       .  A
C3793      C3798   1.407       .  A
C3794      C3795   1.402       .  A
C3794     Br3810   1.919       .  S
C3795      C3796   1.403       .  A
C3795      H3799   1.084       .  S
C3796      C3800   1.474       .  S
C3796      C3797   1.403       .  A
C3797      C3798   1.394       .  A
C3797     Br3809   1.920       .  S
C3798      H3801   1.084       .  S
C3800      C3802   1.401       .  A
C3800      C3806   1.406       .  A
C3802      C3803   1.401       .  A
C3802      H3807   1.083       .  S
C3803      C3804   1.411       .  A
C3803     Br3811   1.914       .  S
C3804      C3805   1.405       .  A
C3805      C3806   1.393       .  A
C3805      H3808   1.084       .  S
C3806     Br3812   1.921       .  S
C3813      C3814   1.416       .  A
C3813      C3818   1.404       .  A
C3814      C3815   1.399       .  A
C3814     Br3830   1.923       .  S
C3815      C3816   1.401       .  A
C3815      H3819   1.084       .  S
C3816      C3820   1.484       .  S
C3816      C3817   1.410       .  A
C3817      C3818   1.402       .  A
C3817     Br3829   1.918       .  S
C3818      H3821   1.083       .  S
C3820      C3822   1.400       .  A
C3820      C3826   1.407       .  A
C3822      C3823   1.400       .  A
C3822      H3827   1.084       .  S
C3823      C3824   1.421       .  A
C3823     Br3831   1.923       .  S
C3824      C3825   1.411       .  A
C3825      C3826   1.403       .  A
C3825      H3828   1.083       .  S
C3826     Br3832   1.919       .  S
C3833      C3834   1.407       .  A
C3833      C3838   1.403       .  A
C3834      C3835   1.397       .  A
C3834     Br3850   1.917       .  S
C3835      C3836   1.401       .  A
C3835      H3839   1.084       .  S
C3836      C3840   1.476       .  S
C3836      C3837   1.407       .  A
C3837      C3838   1.402       .  A
C3837     Br3849   1.917       .  S
C3838      H3841   1.084       .  S
C3840      C3842   1.402       .  A
C3840      C3846   1.402       .  A
C3842      C3843   1.403       .  A
C3842      H3847   1.084       .  S
C3843      C3844   1.417       .  A
C3843     Br3851   1.921       .  S
C3844      C3845   1.410       .  A
C3845      C3846   1.396       .  A
C3845      H3848   1.083       .  S
C3846     Br3852   1.919       .  S
C3853      C3854   1.414       .  A
C3853      C3858   1.408       .  A
C3854      C3855   1.401       .  A
C3854     Br3870   1.917       .  S
C3855      C3856   1.402       .  A
C3855      H3859   1.084       .  S
C3856      C3860   1.481       .  S
C3856      C3857   1.407       .  A
C3857      C3858   1.400       .  A
C3857     Br3869   1.919       .  S
C3858      H3861   1.083       .  S
C3860      C3862   1.399       .  A
C3860      C3866   1.408       .  A
C3862      C3863   1.398       .  A
C3862      H3867   1.084       .  S
C3863      C3864   1.418       .  A
C3863     Br3871   1.923       .  S
C3864      C3865   1.407       .  A
C3865      C3866   1.402       .  A
C3865      H3868   1.083       .  S
C3866     Br3872   1.918       .  S
C3873      C3874   1.421       .  A
C3873      C3878   1.410       .  A
C3874      C3875   1.400       .  A
C3874     Br3890   1.923       .  S
C3875      C3876   1.399       .  A
C3875      H3879   1.084       .  S
C3876      C3880   1.479       .  S
C3876      C3877   1.405       .  A
C3877      C3878   1.399       .  A
C3877     Br3889   1.920       .  S
C3878      H3881   1.083       .  S
C3880      C3882   1.396       .  A
C3880      C3886   1.404       .  A
C3882      C3883   1.398       .  A
C3882      H3887   1.084       .  S
C3883      C3884   1.425       .  A
C3883     Br3891   1.923       .  S
C3884      C3885   1.414       .  A
C3885      C3886   1.400       .  A
C3885      H3888   1.075       .  S
C3886     Br3892   1.920       .  S
C3893      C3894   1.416       .  A
C3893      C3898   1.402       .  A
C3894      C3895   1.403       .  A
C3894     Br3910   1.921       .  S
C3895      C3896   1.402       .  A
C3895      H3899   1.083       .  S
C3896      C3900   1.482       .  S
C3896      C3897   1.407       .  A
C3897      C3898   1.399       .  A
C3897     Br3909   1.919       .  S
C3898      H3901   1.075       .  S
C3900      C3902   1.402       .  A
C3900      C3906   1.406       .  A
C3902      C3903   1.400       .  A
C3902      H3907   1.084       .  S
C3903      C3904   1.414       .  A
C3903     Br3911   1.921       .  S
C3904      C3905   1.408       .  A
C3905      C3906   1.402       .  A
C3905      H3908   1.083       .  S
C3906     Br3912   1.918       .  S
C3913      C3914   1.415       .  A
C3913      C3918   1.409       .  A
C3914      C3915   1.401       .  A
C3914     Br3930   1.921       .  S
C3915      C3916   1.403       .  A
C3915      H3919   1.084       .  S
C3916      C3920   1.479       .  S
C3916      C3917   1.404       .  A
C3917      C3918   1.400       .  A
C3917     Br3929   1.918       .  S
C3918      H3921   1.082       .  S
C3920      C3922   1.403       .  A
C3920      C3926   1.402       .  A
C3922      C3923   1.407       .  A
C3922      H3927   1.083       .  S
C3923      C3924   1.419       .  A
C3923     Br3931   1.920       .  S
C3924      C3925   1.413       .  A
C3925      C3926   1.393       .  A
C3925      H3928   1.082       .  S
C3926     Br3932   1.920       .  S
C3933      C3934   1.415       .  A
C3933      C3938   1.409       .  A
C3934      C3935   1.405       .  A
C3934     Br3950   1.920       .  S
C3935      C3936   1.403       .  A
C3935      H3939   1.083       .  S
C3936      C3940   1.479       .  S
C3936      C3937   1.403       .  A
C3937      C3938   1.396       .  A
C3937     Br3949   1.919       .  S
C3938      H3941   1.083       .  S
C3940      C3942   1.402       .  A
C3940      C3946   1.408       .  A
C3942      C3943   1.400       .  A
C3942      H3947   1.083       .  S
C3943      C3944   1.408       .  A
C3943     Br3951   1.918       .  S
C3944      C3945   1.402       .  A
C3945      C3946   1.401       .  A
C3945      H3948   1.082       .  S
C3946     Br3952   1.918       .  S
C3953      C3954   1.416       .  A
C3953      C3958   1.404       .  A
C3954      C3955   1.398       .  A
C3954     Br3970   1.920       .  S
C3955      C3956   1.399       .  A
C3955      H3959   1.084       .  S
C3956      C3960   1.479       .  S
C3956      C3957   1.408       .  A
C3957      C3958   1.401       .  A
C3957     Br3969   1.918       .  S
C3958      H3961   1.083       .  S
C3960      C3962   1.403       .  A
C3960      C3966   1.405       .  A
C3962      C3963   1.404       .  A
C3962      H3967   1.083       .  S
C3963      C3964   1.415       .  A
C3963     Br3971   1.920   1_565  S
C3964      C3965   1.406       .  A
C3965      C3966   1.396       .  A
C3965      H3968   1.083       .  S
C3966     Br3972   1.920       .  S
C3973      C3974   1.418       .  A
C3973      C3978   1.406       .  A
C3974      C3975   1.401       .  A
C3974     Br3990   1.922   1_565  S
C3975      C3976   1.399       .  A
C3975      H3979   1.084       .  S
C3976      C3980   1.474       .  S
C3976      C3977   1.405       .  A
C3977      C3978   1.397       .  A
C3977     Br3989   1.919       .  S
C3978      H3981   1.083       .  S
C3980      C3982   1.401       .  A
C3980      C3986   1.400       .  A
C3982      C3983   1.404       .  A
C3982      H3987   1.083       .  S
C3983      C3984   1.422       .  A
C3983     Br3991   1.921       .  S
C3984      C3985   1.413       .  A
C3985      C3986   1.391       .  A
C3985      H3988   1.082       .  S
C3986     Br3992   1.920       .  S
C3993      C3994   1.413       .  A
C3993      C3998   1.407       .  A
C3994      C3995   1.399       .  A
C3994     Br4010   1.913       .  S
C3995      C3996   1.399       .  A
C3995      H3999   1.084       .  S
C3996      C4000   1.480       .  S
C3996      C3997   1.407       .  A
C3997      C3998   1.403       .  A
C3997     Br4009   1.917       .  S
C3998      H4001   1.083       .  S
C4000      C4002   1.402       .  A
C4000      C4006   1.403       .  A
C4002      C4003   1.404       .  A
C4002      H4007   1.084       .  S
C4003      C4004   1.419       .  A
C4003     Br4011   1.921       .  S
C4004      C4005   1.411       .  A
C4005      C4006   1.398       .  A
C4005      H4008   1.083       .  S
C4006     Br4012   1.919       .  S
C4013      C4014   1.413       .  A
C4013      C4018   1.406       .  A
C4014      C4015   1.403       .  A
C4014     Br4030   1.920       .  S
C4015      C4016   1.404       .  A
C4015      H4019   1.084       .  S
C4016      C4020   1.479       .  S
C4016      C4017   1.405       .  A
C4017      C4018   1.396       .  A
C4017     Br4029   1.918       .  S
C4018      H4021   1.082       .  S
C4020      C4022   1.396       .  A
C4020      C4026   1.402       .  A
C4022      C4023   1.398       .  A
C4022      H4027   1.084       .  S
C4023      C4024   1.425       .  A
C4023     Br4031   1.920       .  S
C4024      C4025   1.416       .  A
C4025      C4026   1.401       .  A
C4025      H4028   1.075       .  S
C4026     Br4032   1.919       .  S
C4033      C4034   1.418       .  A
C4033      C4038   1.411       .  A
C4034      C4035   1.403       .  A
C4034     Br4050   1.918       .  S
C4035      C4036   1.400       .  A
C4035      H4039   1.084       .  S
C4036      C4040   1.481       .  S
C4036      C4037   1.404       .  A
C4037      C4038   1.401       .  A
C4037     Br4049   1.918       .  S
C4038      H4041   1.083       .  S
C4040      C4042   1.401       .  A
C4040      C4046   1.406       .  A
C4042      C4043   1.403       .  A
C4042      H4047   1.083       .  S
C4043      C4044   1.417       .  A
C4043     Br4051   1.922       .  S
C4044      C4045   1.407       .  A
C4045      C4046   1.400       .  A
C4045      H4048   1.083       .  S
C4046     Br4052   1.918       .  S
C4053      C4054   1.425       .  A
C4053      C4058   1.414       .  A
C4054      C4055   1.401       .  A
C4054     Br4070   1.926       .  S
C4055      C4056   1.400       .  A
C4055      H4059   1.084       .  S
C4056      C4060   1.491       .  S
C4056      C4057   1.408       .  A
C4057      C4058   1.403       .  A
C4057     Br4069   1.919       .  S
C4058      H4061   1.076       .  S
C4060      C4062   1.404       .  A
C4060      C4066   1.413       .  A
C4062      C4063   1.402       .  A
C4062      H4067   1.083       .  S
C4063      C4064   1.412       .  A
C4063     Br4071   1.917       .  S
C4064      C4065   1.403       .  A
C4065      C4066   1.403       .  A
C4065      H4068   1.083       .  S
C4066     Br4072   1.919       .  S
C4073      C4074   1.420       .  A
C4073      C4078   1.409       .  A
C4074      C4075   1.399       .  A
C4074     Br4090   1.923       .  S
C4075      C4076   1.401       .  A
C4075      H4079   1.084       .  S
C4076      C4080   1.482       .  S
C4076      C4077   1.407       .  A
C4077      C4078   1.400       .  A
C4077     Br4089   1.919       .  S
C4078      H4081   1.083       .  S
C4080      C4082   1.398       .  A
C4080      C4086   1.406       .  A
C4082      C4083   1.397       .  A
C4082      H4087   1.084       .  S
C4083      C4084   1.423       .  A
C4083     Br4091   1.923       .  S
C4084      C4085   1.413       .  A
C4085      C4086   1.400       .  A
C4085      H4088   1.076       .  S
C4086     Br4092   1.920       .  S
C4093      C4094   1.412       .  A
C4093      C4098   1.405       .  A
C4094      C4095   1.400       .  A
C4094     Br4110   1.920       .  S
C4095      C4096   1.402       .  A
C4095      H4099   1.084       .  S
C4096      C4100   1.480       .  S
C4096      C4097   1.408       .  A
C4097      C4098   1.400       .  A
C4097     Br4109   1.919       .  S
C4098      H4101   1.083       .  S
C4100      C4102   1.396       .  A
C4100      C4106   1.405       .  A
C4102      C4103   1.396       .  A
C4102      H4107   1.084       .  S
C4103      C4104   1.424       .  A
C4103     Br4111   1.921       .  S
C4104      C4105   1.414       .  A
C4105      C4106   1.401       .  A
C4105      H4108   1.076       .  S
C4106     Br4112   1.919       .  S
C4113      C4114   1.416       .  A
C4113      C4118   1.406       .  A
C4114      C4115   1.401       .  A
C4114     Br4130   1.922       .  S
C4115      C4116   1.401       .  A
C4115      H4119   1.084       .  S
C4116      C4120   1.484       .  S
C4116      C4117   1.408       .  A
C4117      C4118   1.402       .  A
C4117     Br4129   1.918       .  S
C4118      H4121   1.083       .  S
C4120      C4122   1.403       .  A
C4120      C4126   1.405       .  A
C4122      C4123   1.404       .  A
C4122      H4127   1.084       .  S
C4123      C4124   1.413       .  A
C4123     Br4131   1.913       .  S
C4124      C4125   1.410       .  A
C4125      C4126   1.399       .  A
C4125      H4128   1.083       .  S
C4126     Br4132   1.918       .  S
C4133      C4134   1.410       .  A
C4133      C4138   1.401       .  A
C4134      C4135   1.403       .  A
C4134     Br4150   1.919       .  S
C4135      C4136   1.405       .  A
C4135      H4139   1.083       .  S
C4136      C4140   1.490       .  S
C4136      C4137   1.412       .  A
C4137      C4138   1.402       .  A
C4137     Br4149   1.919       .  S
C4138      H4141   1.084       .  S
C4140      C4142   1.398       .  A
C4140      C4146   1.409       .  A
C4142      C4143   1.399       .  A
C4142      H4147   1.084       .  S
C4143      C4144   1.425       .  A
C4143     Br4151   1.923       .  S
C4144      C4145   1.411       .  A
C4145      C4146   1.406       .  A
C4145      H4148   1.083       .  S
C4146     Br4152   1.918       .  S
C4153      C4154   1.413       .  A
C4153      C4158   1.406       .  A
C4154      C4155   1.400       .  A
C4154     Br4170   1.917       .  S
C4155      C4156   1.401       .  A
C4155      H4159   1.084       .  S
C4156      C4160   1.476       .  S
C4156      C4157   1.407       .  A
C4157      C4158   1.398       .  A
C4157     Br4169   1.919       .  S
C4158      H4161   1.084       .  S
C4160      C4162   1.397       .  A
C4160      C4166   1.409       .  A
C4162      C4163   1.394       .  A
C4162      H4167   1.084       .  S
C4163      C4164   1.414       .  A
C4163     Br4171   1.919       .  S
C4164      C4165   1.404       .  A
C4165      C4166   1.403       .  A
C4165      H4168   1.082       .  S
C4166     Br4172   1.917       .  S
C4173      C4174   1.413       .  A
C4173      C4178   1.408       .  A
C4174      C4175   1.401       .  A
C4174     Br4190   1.920       .  S
C4175      C4176   1.404       .  A
C4175      H4179   1.084       .  S
C4176      C4180   1.484       .  S
C4176      C4177   1.407       .  A
C4177      C4178   1.400       .  A
C4177     Br4189   1.919       .  S
C4178      H4181   1.083       .  S
C4180      C4182   1.407       .  A
C4180      C4186   1.408       .  A
C4182      C4183   1.402       .  A
C4182      H4187   1.083       .  S
C4183      C4184   1.404       .  A
C4183     Br4191   1.916       .  S
C4184      C4185   1.404       .  A
C4185      C4186   1.398       .  A
C4185      H4188   1.084       .  S
C4186     Br4192   1.919       .  S
C4193      C4194   1.411       .  A
C4193      C4198   1.404       .  A
C4194      C4195   1.403       .  A
C4194     Br4210   1.919       .  S
C4195      C4196   1.406       .  A
C4195      H4199   1.083       .  S
C4196      C4200   1.486       .  S
C4196      C4197   1.410       .  A
C4197      C4198   1.397       .  A
C4197     Br4209   1.920       .  S
C4198      H4201   1.084       .  S
C4200      C4202   1.398       .  A
C4200      C4206   1.406       .  A
C4202      C4203   1.397       .  A
C4202      H4207   1.084       .  S
C4203      C4204   1.424       .  A
C4203     Br4211   1.922       .  S
C4204      C4205   1.415       .  A
C4205      C4206   1.403       .  A
C4205      H4208   1.077       .  S
C4206     Br4212   1.920       .  S
C4213      C4214   1.412       .  A
C4213      C4218   1.404       .  A
C4214      C4215   1.401       .  A
C4214     Br4230   1.920       .  S
C4215      C4216   1.404       .  A
C4215      H4219   1.083       .  S
C4216      C4220   1.485       .  S
C4216      C4217   1.411       .  A
C4217      C4218   1.399       .  A
C4217     Br4229   1.921       .  S
C4218      H4221   1.084       .  S
C4220      C4222   1.397       .  A
C4220      C4226   1.407       .  A
C4222      C4223   1.397       .  A
C4222      H4227   1.084       .  S
C4223      C4224   1.423       .  A
C4223     Br4231   1.921       .  S
C4224      C4225   1.413       .  A
C4225      C4226   1.402       .  A
C4225      H4228   1.076       .  S
C4226     Br4232   1.920       .  S
C4233      C4234   1.415       .  A
C4233      C4238   1.408       .  A
C4234      C4235   1.404       .  A
C4234     Br4250   1.920       .  S
C4235      C4236   1.404       .  A
C4235      H4239   1.083       .  S
C4236      C4240   1.486       .  S
C4236      C4237   1.408       .  A
C4237      C4238   1.400       .  A
C4237     Br4249   1.919       .  S
C4238      H4241   1.083       .  S
C4240      C4242   1.403       .  A
C4240      C4246   1.410       .  A
C4242      C4243   1.400       .  A
C4242      H4247   1.084       .  S
C4243      C4244   1.412       .  A
C4243     Br4251   1.920       .  S
C4244      C4245   1.403       .  A
C4245      C4246   1.404       .  A
C4245      H4248   1.080       .  S
C4246     Br4252   1.918       .  S
C4253      C4254   1.425       .  A
C4253      C4258   1.410       .  A
C4254      C4255   1.399       .  A
C4254     Br4270   1.926       .  S
C4255      C4256   1.397       .  A
C4255      H4259   1.084       .  S
C4256      C4260   1.481       .  S
C4256      C4257   1.406       .  A
C4257      C4258   1.404       .  A
C4257     Br4269   1.916       .  S
C4258      H4261   1.083       .  S
C4260      C4262   1.403       .  A
C4260      C4266   1.407       .  A
C4262      C4263   1.403       .  A
C4262      H4267   1.083       .  S
C4263      C4264   1.410       .  A
C4263     Br4271   1.918       .  S
C4264      C4265   1.402       .  A
C4265      C4266   1.401       .  A
C4265      H4268   1.081       .  S
C4266     Br4272   1.918       .  S
C4273      C4274   1.410       .  A
C4273      C4278   1.404       .  A
C4274      C4275   1.401       .  A
C4274     Br4290   1.914       .  S
C4275      C4276   1.403       .  A
C4275      H4279   1.083       .  S
C4276      C4280   1.483       .  S
C4276      C4277   1.409       .  A
C4277      C4278   1.397       .  A
C4277     Br4289   1.919       .  S
C4278      H4281   1.084       .  S
C4280      C4282   1.405       .  A
C4280      C4286   1.407       .  A
C4282      C4283   1.401       .  A
C4282      H4287   1.084       .  S
C4283      C4284   1.412       .  A
C4283     Br4291   1.920       .  S
C4284      C4285   1.407       .  A
C4285      C4286   1.397       .  A
C4285      H4288   1.084       .  S
C4286     Br4292   1.919       .  S
C4293      C4294   1.409       .  A
C4293      C4298   1.404       .  A
C4294      C4295   1.395       .  A
C4294     Br4310   1.921       .  S
C4295      C4296   1.401       .  A
C4295      H4299   1.084       .  S
C4296      C4300   1.475       .  S
C4296      C4297   1.408       .  A
C4297      C4298   1.401       .  A
C4297     Br4309   1.917       .  S
C4298      H4301   1.084       .  S
C4300      C4302   1.400       .  A
C4300      C4306   1.409       .  A
C4302      C4303   1.396       .  A
C4302      H4307   1.084       .  S
C4303      C4304   1.411       .  A
C4303     Br4311   1.921       .  S
C4304      C4305   1.400       .  A
C4305      C4306   1.400       .  A
C4305      H4308   1.084       .  S
C4306     Br4312   1.918       .  S
C4313      C4314   1.417       .  A
C4313      C4318   1.408       .  A
C4314      C4315   1.400       .  A
C4314     Br4330   1.921       .  S
C4315      C4316   1.400       .  A
C4315      H4319   1.084       .  S
C4316      C4320   1.475       .  S
C4316      C4317   1.405       .  A
C4317      C4318   1.398       .  A
C4317     Br4329   1.918       .  S
C4318      H4321   1.083       .  S
C4320      C4322   1.401       .  A
C4320      C4326   1.399       .  A
C4322      C4323   1.407       .  A
C4322      H4327   1.083       .  S
C4323      C4324   1.422       .  A
C4323     Br4331   1.921       .  S
C4324      C4325   1.415       .  A
C4325      C4326   1.389       .  A
C4325      H4328   1.074       .  S
C4326     Br4332   1.924       .  S
C4333      C4334   1.413       .  A
C4333      C4338   1.406       .  A
C4334      C4335   1.397       .  A
C4334     Br4350   1.922       .  S
C4335      C4336   1.402       .  A
C4335      H4339   1.084       .  S
C4336      C4340   1.480       .  S
C4336      C4337   1.408       .  A
C4337      C4338   1.400       .  A
C4337     Br4349   1.918       .  S
C4338      H4341   1.083       .  S
C4340      C4342   1.397       .  A
C4340      C4346   1.405       .  A
C4342      C4343   1.398       .  A
C4342      H4347   1.084       .  S
C4343      C4344   1.425       .  A
C4343     Br4351   1.926       .  S
C4344      C4345   1.413       .  A
C4345      C4346   1.400       .  A
C4345      H4348   1.076       .  S
C4346     Br4352   1.920       .  S
C4353      C4354   1.419       .  A
C4353      C4358   1.410       .  A
C4354      C4355   1.408       .  A
C4354     Br4370   1.920       .  S
C4355      C4356   1.404       .  A
C4355      H4359   1.083       .  S
C4356      C4360   1.486       .  S
C4356      C4357   1.405       .  A
C4357      C4358   1.397       .  A
C4357     Br4369   1.920       .  S
C4358      H4361   1.083       .  S
C4360      C4362   1.400       .  A
C4360      C4366   1.408       .  A
C4362      C4363   1.400       .  A
C4362      H4367   1.084       .  S
C4363      C4364   1.413       .  A
C4363     Br4371   1.909       .  S
C4364      C4365   1.407       .  A
C4365      C4366   1.405       .  A
C4365      H4368   1.084       .  S
C4366     Br4372   1.917       .  S
C4373      C4374   1.419       .  A
C4373      C4378   1.412       .  A
C4374      C4375   1.404       .  A
C4374     Br4390   1.911       .  S
C4375      C4376   1.400       .  A
C4375      H4379   1.084       .  S
C4376      C4380   1.483       .  S
C4376      C4377   1.404       .  A
C4377      C4378   1.399       .  A
C4377     Br4389   1.918       .  S
C4378      H4381   1.083       .  S
C4380      C4382   1.402       .  A
C4380      C4386   1.405       .  A
C4382      C4383   1.403       .  A
C4382      H4387   1.084       .  S
C4383      C4384   1.417       .  A
C4383     Br4391   1.921       .  S
C4384      C4385   1.410       .  A
C4385      C4386   1.400       .  A
C4385      H4388   1.083       .  S
C4386     Br4392   1.919       .  S
C4393      C4394   1.414       .  A
C4393      C4398   1.407       .  A
C4394      C4395   1.400       .  A
C4394     Br4410   1.921       .  S
C4395      C4396   1.401       .  A
C4395      H4399   1.084       .  S
C4396      C4400   1.474       .  S
C4396      C4397   1.405       .  A
C4397      C4398   1.395       .  A
C4397     Br4409   1.920       .  S
C4398      H4401   1.084       .  S
C4400      C4402   1.396       .  A
C4400      C4406   1.407       .  A
C4402      C4403   1.394       .  A
C4402      H4407   1.084       .  S
C4403      C4404   1.417       .  A
C4403     Br4411   1.916       .  S
C4404      C4405   1.404       .  A
C4405      C4406   1.401       .  A
C4405      H4408   1.080       .  S
C4406     Br4412   1.917       .  S
C4413      C4414   1.412       .  A
C4413      C4418   1.406       .  A
C4414      C4415   1.400       .  A
C4414     Br4430   1.921       .  S
C4415      C4416   1.404       .  A
C4415      H4419   1.084       .  S
C4416      C4420   1.482       .  S
C4416      C4417   1.407       .  A
C4417      C4418   1.399       .  A
C4417     Br4429   1.919       .  S
C4418      H4421   1.084       .  S
C4420      C4422   1.404       .  A
C4420      C4426   1.408       .  A
C4422      C4423   1.401       .  A
C4422      H4427   1.084       .  S
C4423      C4424   1.409       .  A
C4423     Br4431   1.915       .  S
C4424      C4425   1.404       .  A
C4425      C4426   1.398       .  A
C4425      H4428   1.084       .  S
C4426     Br4432   1.919       .  S
C4433      C4434   1.411       .  A
C4433      C4438   1.404       .  A
C4434      C4435   1.400       .  A
C4434     Br4450   1.920       .  S
C4435      C4436   1.404       .  A
C4435      H4439   1.083       .  S
C4436      C4440   1.482       .  S
C4436      C4437   1.409       .  A
C4437      C4438   1.397       .  A
C4437     Br4449   1.920       .  S
C4438      H4441   1.084       .  S
C4440      C4442   1.400       .  A
C4440      C4446   1.403       .  A
C4442      C4443   1.400       .  A
C4442      H4447   1.084       .  S
C4443      C4444   1.424       .  A
C4443     Br4451   1.924       .  S
C4444      C4445   1.415       .  A
C4445      C4446   1.397       .  A
C4445      H4448   1.076       .  S
C4446     Br4452   1.921       .  S
C4453      C4454   1.411       .  A
C4453      C4458   1.403       .  A
C4454      C4455   1.398       .  A
C4454     Br4470   1.921       .  S
C4455      C4456   1.403       .  A
C4455      H4459   1.084       .  S
C4456      C4460   1.478       .  S
C4456      C4457   1.408       .  A
C4457      C4458   1.398       .  A
C4457     Br4469   1.919       .  S
C4458      H4461   1.084       .  S
C4460      C4462   1.397       .  A
C4460      C4466   1.405       .  A
C4462      C4463   1.394       .  A
C4462      H4467   1.084       .  S
C4463      C4464   1.423       .  A
C4463     Br4471   1.926       .  S
C4464      C4465   1.413       .  A
C4465      C4466   1.400       .  A
C4465      H4468   1.075       .  S
C4466     Br4472   1.920       .  S
C4473      C4474   1.413       .  A
C4473      C4478   1.407       .  A
C4474      C4475   1.404       .  A
C4474     Br4490   1.916       .  S
C4475      C4476   1.404       .  A
C4475      H4479   1.084       .  S
C4476      C4480   1.484       .  S
C4476      C4477   1.406       .  A
C4477      C4478   1.399       .  A
C4477     Br4489   1.918       .  S
C4478      H4481   1.083       .  S
C4480      C4482   1.402       .  A
C4480      C4486   1.408       .  A
C4482      C4483   1.402       .  A
C4482      H4487   1.084       .  S
C4483      C4484   1.415       .  A
C4483     Br4491   1.921       .  S
C4484      C4485   1.407       .  A
C4485      C4486   1.402       .  A
C4485      H4488   1.083       .  S
C4486     Br4492   1.918       .  S
C4493      C4494   1.419       .  A
C4493      C4498   1.411       .  A
C4494      C4495   1.407       .  A
C4494     Br4510   1.920       .  S
C4495      C4496   1.403       .  A
C4495      H4499   1.083       .  S
C4496      C4500   1.484       .  S
C4496      C4497   1.403       .  A
C4497      C4498   1.398       .  A
C4497     Br4509   1.919       .  S
C4498      H4501   1.083       .  S
C4500      C4502   1.403       .  A
C4500      C4506   1.408       .  A
C4502      C4503   1.403       .  A
C4502      H4507   1.083       .  S
C4503      C4504   1.410       .  A
C4503     Br4511   1.916       .  S
C4504      C4505   1.402       .  A
C4505      C4506   1.401       .  A
C4505      H4508   1.081       .  S
C4506     Br4512   1.917       .  S
C4513      C4514   1.413       .  A
C4513      C4518   1.402       .  A
C4514      C4515   1.396       .  A
C4514     Br4530   1.922       .  S
C4515      C4516   1.399       .  A
C4515      H4519   1.084       .  S
C4516      C4520   1.472       .  S
C4516      C4517   1.409       .  A
C4517      C4518   1.397       .  A
C4517     Br4529   1.919       .  S
C4518      H4521   1.084       .  S
C4520      C4522   1.397       .  A
C4520      C4526   1.410       .  A
C4522      C4523   1.392       .  A
C4522      H4527   1.084       .  S
C4523      C4524   1.413       .  A
C4523     Br4531   1.923       .  S
C4524      C4525   1.401       .  A
C4525      C4526   1.401       .  A
C4525      H4528   1.084       .  S
C4526     Br4532   1.918       .  S
C4533      C4534   1.411       .  A
C4533      C4538   1.406       .  A
C4534      C4535   1.401       .  A
C4534     Br4550   1.913       .  S
C4535      C4536   1.402       .  A
C4535      H4539   1.083       .  S
C4536      C4540   1.475       .  S
C4536      C4537   1.405       .  A
C4537      C4538   1.395       .  A
C4537     Br4549   1.920       .  S
C4538      H4541   1.084       .  S
C4540      C4542   1.398       .  A
C4540      C4546   1.408       .  A
C4542      C4543   1.396       .  A
C4542      H4547   1.084       .  S
C4543      C4544   1.415       .  A
C4543     Br4551   1.923       .  S
C4544      C4545   1.405       .  A
C4545      C4546   1.401       .  A
C4545      H4548   1.083       .  S
C4546     Br4552   1.918       .  S
C4553      C4554   1.419       .  A
C4553      C4558   1.410       .  A
C4554      C4555   1.397       .  A
C4554     Br4570   1.923       .  S
C4555      C4556   1.398       .  A
C4555      H4559   1.084       .  S
C4556      C4560   1.473       .  S
C4556      C4557   1.404       .  A
C4557      C4558   1.399       .  A
C4557     Br4569   1.918       .  S
C4558      H4561   1.083       .  S
C4560      C4562   1.401       .  A
C4560      C4566   1.399       .  A
C4562      C4563   1.406       .  A
C4562      H4567   1.083       .  S
C4563      C4564   1.420       .  A
C4563     Br4571   1.918       .  S
C4564      C4565   1.415       .  A
C4565      C4566   1.389       .  A
C4565      H4568   1.078       .  S
C4566     Br4572   1.922       .  S
C4573      C4574   1.424       .  A
C4573      C4578   1.414       .  A
C4574      C4575   1.395       .  A
C4574     Br4590   1.923       .  S
C4575      C4576   1.395       .  A
C4575      H4579   1.084       .  S
C4576      C4580   1.477       .  S
C4576      C4577   1.404       .  A
C4577      C4578   1.401       .  A
C4577     Br4589   1.919       .  S
C4578      H4581   1.077       .  S
C4580      C4582   1.402       .  A
C4580      C4586   1.407       .  A
C4582      C4583   1.400       .  A
C4582      H4587   1.084       .  S
C4583      C4584   1.413       .  A
C4583     Br4591   1.920       .  S
C4584      C4585   1.404       .  A
C4585      C4586   1.397       .  A
C4585      H4588   1.084       .  S
C4586     Br4592   1.919       .  S
C4593      C4594   1.414       .  A
C4593      C4598   1.406       .  A
C4594      C4595   1.403       .  A
C4594     Br4610   1.921       .  S
C4595      C4596   1.403       .  A
C4595      H4599   1.083       .  S
C4596      C4600   1.487       .  S
C4596      C4597   1.409       .  A
C4597      C4598   1.403       .  A
C4597     Br4609   1.918       .  S
C4598      H4601   1.083       .  S
C4600      C4602   1.401       .  A
C4600      C4606   1.410       .  A
C4602      C4603   1.402       .  A
C4602      H4607   1.083       .  S
C4603      C4604   1.416       .  A
C4603     Br4611   1.921       .  S
C4604      C4605   1.404       .  A
C4605      C4606   1.405       .  A
C4605      H4608   1.082       .  S
C4606     Br4612   1.918       .  S
C4613      C4614   1.416       .  A
C4613      C4618   1.409       .  A
C4614      C4615   1.406       .  A
C4614     Br4630   1.919       .  S
C4615      C4616   1.404       .  A
C4615      H4619   1.083       .  S
C4616      C4620   1.486       .  S
C4616      C4617   1.406       .  A
C4617      C4618   1.400       .  A
C4617     Br4629   1.920       .  S
C4618      H4621   1.083       .  S
C4620      C4622   1.402       .  A
C4620      C4626   1.409       .  A
C4622      C4623   1.402       .  A
C4622      H4627   1.083       .  S
C4623      C4624   1.414       .  A
C4623     Br4631   1.920       .  S
C4624      C4625   1.404       .  A
C4625      C4626   1.402       .  A
C4625      H4628   1.083       .  S
C4626     Br4632   1.918       .  S
C4633      C4634   1.409       .  A
C4633      C4638   1.403       .  A
C4634      C4635   1.392       .  A
C4634     Br4650   1.921       .  S
C4635      C4636   1.401       .  A
C4635      H4639   1.084       .  S
C4636      C4640   1.476       .  S
C4636      C4637   1.409       .  A
C4637      C4638   1.402       .  A
C4637     Br4649   1.917       .  S
C4638      H4641   1.084       .  S
C4640      C4642   1.399       .  A
C4640      C4646   1.409       .  A
C4642      C4643   1.399       .  A
C4642      H4647   1.083       .  S
C4643      C4644   1.416       .  A
C4643     Br4651   1.922       .  S
C4644      C4645   1.403       .  A
C4645      C4646   1.397       .  A
C4645      H4648   1.083       .  S
C4646     Br4652   1.920       .  S
C4653      C4654   1.417       .  A
C4653      C4658   1.403       .  A
C4654      C4655   1.395       .  A
C4654     Br4670   1.925       .  S
C4655      C4656   1.398       .  A
C4655      H4659   1.084       .  S
C4656      C4660   1.473       .  S
C4656      C4657   1.405       .  A
C4657      C4658   1.400       .  A
C4657     Br4669   1.917       .  S
C4658      H4661   1.076       .  S
C4660      C4662   1.400       .  A
C4660      C4666   1.408       .  A
C4662      C4663   1.398       .  A
C4662      H4667   1.084       .  S
C4663      C4664   1.412       .  A
C4663     Br4671   1.921       .  S
C4664      C4665   1.402       .  A
C4665      C4666   1.398       .  A
C4665      H4668   1.083       .  S
C4666     Br4672   1.918       .  S
C4673      C4674   1.414       .  A
C4673      C4678   1.406       .  A
C4674      C4675   1.399       .  A
C4674     Br4690   1.921       .  S
C4675      C4676   1.401       .  A
C4675      H4679   1.084       .  S
C4676      C4680   1.481       .  S
C4676      C4677   1.408       .  A
C4677      C4678   1.403       .  A
C4677     Br4689   1.918       .  S
C4678      H4681   1.083       .  S
C4680      C4682   1.402       .  A
C4680      C4686   1.401       .  A
C4682      C4683   1.407       .  A
C4682      H4687   1.083       .  S
C4683      C4684   1.422       .  A
C4683     Br4691   1.922       .  S
C4684      C4685   1.415       .  A
C4685      C4686   1.393       .  A
C4685      H4688   1.076       .  S
C4686     Br4692   1.921       .  S
C4693      C4694   1.426       .  A
C4693      C4698   1.414       .  A
C4694      C4695   1.396       .  A
C4694     Br4710   1.926       .  S
C4695      C4696   1.394       .  A
C4695      H4699   1.084       .  S
C4696      C4700   1.473       .  S
C4696      C4697   1.402       .  A
C4697      C4698   1.400       .  A
C4697     Br4709   1.919       .  S
C4698      H4701   1.076       .  S
C4700      C4702   1.402       .  A
C4700      C4706   1.405       .  A
C4702      C4703   1.398       .  A
C4702      H4707   1.084       .  S
C4703      C4704   1.410       .  A
C4703     Br4711   1.920       .  S
C4704      C4705   1.406       .  A
C4705      C4706   1.398       .  A
C4705      H4708   1.084       .  S
C4706     Br4712   1.918       .  S
C4713      C4714   1.420       .  A
C4713      C4718   1.408       .  A
C4714      C4715   1.398       .  A
C4714     Br4730   1.925       .  S
C4715      C4716   1.400       .  A
C4715      H4719   1.084       .  S
C4716      C4720   1.484       .  S
C4716      C4717   1.409       .  A
C4717      C4718   1.402       .  A
C4717     Br4729   1.919       .  S
C4718      H4721   1.083       .  S
C4720      C4722   1.403       .  A
C4720      C4726   1.409       .  A
C4722      C4723   1.402       .  A
C4722      H4727   1.083       .  S
C4723      C4724   1.412       .  A
C4723     Br4731   1.916       .  S
C4724      C4725   1.405       .  A
C4725      C4726   1.399       .  A
C4725      H4728   1.083       .  S
C4726     Br4732   1.920       .  S
C4733      C4734   1.411       .  A
C4733      C4738   1.403       .  A
C4734      C4735   1.399       .  A
C4734     Br4750   1.920       .  S
C4735      C4736   1.401       .  A
C4735      H4739   1.083       .  S
C4736      C4740   1.482       .  S
C4736      C4737   1.410       .  A
C4737      C4738   1.403       .  A
C4737     Br4749   1.918       .  S
C4738      H4741   1.084       .  S
C4740      C4742   1.401       .  A
C4740      C4746   1.409       .  A
C4742      C4743   1.400       .  A
C4742      H4747   1.084       .  S
C4743      C4744   1.415       .  A
C4743     Br4751   1.922       .  S
C4744      C4745   1.405       .  A
C4745      C4746   1.403       .  A
C4745      H4748   1.083       .  S
C4746     Br4752   1.918       .  S
C4753      C4754   1.414       .  A
C4753      C4758   1.407       .  A
C4754      C4755   1.405       .  A
C4754     Br4770   1.919       .  S
C4755      C4756   1.404       .  A
C4755      H4759   1.083       .  S
C4756      C4760   1.484       .  S
C4756      C4757   1.407       .  A
C4757      C4758   1.397       .  A
C4757     Br4769   1.920       .  S
C4758      H4761   1.084       .  S
C4760      C4762   1.406       .  A
C4760      C4766   1.406       .  A
C4762      C4763   1.404       .  A
C4762      H4767   1.083       .  S
C4763      C4764   1.409       .  A
C4763     Br4771   1.916       .  S
C4764      C4765   1.406       .  A
C4765      C4766   1.397       .  A
C4765      H4768   1.084       .  S
C4766     Br4772   1.918       .  S
C4773      C4774   1.417       .  A
C4773      C4778   1.402       .  A
C4774      C4775   1.397       .  A
C4774     Br4790   1.923       .  S
C4775      C4776   1.400       .  A
C4775      H4779   1.084       .  S
C4776      C4780   1.479       .  S
C4776      C4777   1.409       .  A
C4777      C4778   1.399       .  A
C4777     Br4789   1.919       .  S
C4778      H4781   1.079       .  S
C4780      C4782   1.402       .  A
C4780      C4786   1.411       .  A
C4782      C4783   1.395       .  A
C4782      H4787   1.084       .  S
C4783      C4784   1.408       .  A
C4783     Br4791   1.921       .  S
C4784      C4785   1.402       .  A
C4785      C4786   1.402       .  A
C4785      H4788   1.083       .  S
C4786     Br4792   1.918       .  S
C4793      C4794   1.425       .  A
C4793      C4798   1.414       .  A
C4794      C4795   1.399       .  A
C4794     Br4810   1.925       .  S
C4795      C4796   1.398       .  A
C4795      H4799   1.084       .  S
C4796      C4800   1.480       .  S
C4796      C4797   1.404       .  A
C4797      C4798   1.399       .  A
C4797     Br4809   1.920       .  S
C4798      H4801   1.076       .  S
C4800      C4802   1.403       .  A
C4800      C4806   1.407       .  A
C4802      C4803   1.400       .  A
C4802      H4807   1.084       .  S
C4803      C4804   1.412       .  A
C4803     Br4811   1.921       .  S
C4804      C4805   1.405       .  A
C4805      C4806   1.399       .  A
C4805      H4808   1.084       .  S
C4806     Br4812   1.919       .  S
C4813      C4814   1.411       .  A
C4813      C4818   1.405       .  A
C4814      C4815   1.398       .  A
C4814     Br4830   1.921       .  S
C4815      C4816   1.403       .  A
C4815      H4819   1.084       .  S
C4816      C4820   1.479       .  S
C4816      C4817   1.407       .  A
C4817      C4818   1.399       .  A
C4817     Br4829   1.919       .  S
C4818      H4821   1.084       .  S
C4820      C4822   1.397       .  A
C4820      C4826   1.405       .  A
C4822      C4823   1.396       .  A
C4822      H4827   1.084       .  S
C4823      C4824   1.425       .  A
C4823     Br4831   1.927       .  S
C4824      C4825   1.413       .  A
C4825      C4826   1.400       .  A
C4825      H4828   1.077       .  S
C4826     Br4832   1.920       .  S
C4833      C4834   1.421       .  A
C4833      C4838   1.409       .  A
C4834      C4835   1.401       .  A
C4834     Br4850   1.924       .  S
C4835      C4836   1.403       .  A
C4835      H4839   1.083       .  S
C4836      C4840   1.494       .  S
C4836      C4837   1.411       .  A
C4837      C4838   1.402       .  A
C4837     Br4849   1.920       .  S
C4838      H4841   1.083       .  S
C4840      C4842   1.406       .  A
C4840      C4846   1.411       .  A
C4842      C4843   1.404       .  A
C4842      H4847   1.083       .  S
C4843      C4844   1.414       .  A
C4843     Br4851   1.918       .  S
C4844      C4845   1.408       .  A
C4845      C4846   1.399       .  A
C4845      H4848   1.083       .  S
C4846     Br4852   1.921       .  S
C4853      C4854   1.425       .  A
C4853      C4858   1.410       .  A
C4854      C4855   1.399       .  A
C4854     Br4870   1.925       .  S
C4855      C4856   1.399       .  A
C4855      H4859   1.084       .  S
C4856      C4860   1.491       .  S
C4856      C4857   1.411       .  A
C4857      C4858   1.405       .  A
C4857     Br4869   1.919       .  S
C4858      H4861   1.083       .  S
C4860      C4862   1.402       .  A
C4860      C4866   1.413       .  A
C4862      C4863   1.401       .  A
C4862      H4867   1.083       .  S
C4863      C4864   1.415       .  A
C4863     Br4871   1.917       .  S
C4864      C4865   1.404       .  A
C4865      C4866   1.403       .  A
C4865      H4868   1.084       .  S
C4866     Br4872   1.919       .  S
C4873      C4874   1.412       .  A
C4873      C4878   1.406       .  A
C4874      C4875   1.398       .  A
C4874     Br4890   1.921       .  S
C4875      C4876   1.401       .  A
C4875      H4879   1.084       .  S
C4876      C4880   1.468       .  S
C4876      C4877   1.403       .  A
C4877      C4878   1.393       .  A
C4877     Br4889   1.920       .  S
C4878      H4881   1.084       .  S
C4880      C4882   1.400       .  A
C4880      C4886   1.403       .  A
C4882      C4883   1.399       .  A
C4882      H4887   1.084       .  S
C4883      C4884   1.413       .  A
C4883     Br4891   1.916       .  S
C4884      C4885   1.408       .  A
C4885      C4886   1.393       .  A
C4885      H4888   1.083       .  S
C4886     Br4892   1.920       .  S
C4893      C4894   1.408       .  A
C4893      C4898   1.404       .  A
C4894      C4895   1.398       .  A
C4894     Br4910   1.919       .  S
C4895      C4896   1.403       .  A
C4895      H4899   1.084       .  S
C4896      C4900   1.471       .  S
C4896      C4897   1.404       .  A
C4897      C4898   1.395       .  A
C4897     Br4909   1.919       .  S
C4898      H4901   1.084       .  S
C4900      C4902   1.397       .  A
C4900      C4906   1.411       .  A
C4902      C4903   1.393       .  A
C4902      H4907   1.084       .  S
C4903      C4904   1.414       .  A
C4903     Br4911   1.923       .  S
C4904      C4905   1.399       .  A
C4905      C4906   1.399       .  A
C4905      H4908   1.084       .  S
C4906     Br4912   1.919       .  S
C4913      C4914   1.418       .  A
C4913      C4918   1.407       .  A
C4914      C4915   1.403       .  A
C4914     Br4930   1.922   1_554  S
C4915      C4916   1.401       .  A
C4915      H4919   1.084       .  S
C4916      C4920   1.483       .  S
C4916      C4917   1.407       .  A
C4917      C4918   1.402       .  A
C4917     Br4929   1.919       .  S
C4918      H4921   1.083       .  S
C4920      C4922   1.402       .  A
C4920      C4926   1.401       .  A
C4922      C4923   1.408       .  A
C4922      H4927   1.083       .  S
C4923      C4924   1.423       .  A
C4923     Br4931   1.921       .  S
C4924      C4925   1.416       .  A
C4925      C4926   1.395       .  A
C4925      H4928   1.078       .  S
C4926     Br4932   1.921       .  S
C4933      C4934   1.411       .  A
C4933      C4938   1.404       .  A
C4934      C4935   1.398       .  A
C4934     Br4950   1.920       .  S
C4935      C4936   1.402       .  A
C4935      H4939   1.084       .  S
C4936      C4940   1.480       .  S
C4936      C4937   1.410       .  A
C4937      C4938   1.400       .  A
C4937     Br4949   1.920       .  S
C4938      H4941   1.084       .  S
C4940      C4942   1.398       .  A
C4940      C4946   1.405       .  A
C4942      C4943   1.397       .  A
C4942      H4947   1.084       .  S
C4943      C4944   1.424       .  A
C4943     Br4951   1.926       .  S
C4944      C4945   1.413       .  A
C4945      C4946   1.399       .  A
C4945      H4948   1.076       .  S
C4946     Br4952   1.920       .  S
C4953      C4954   1.417       .  A
C4953      C4958   1.411       .  A
C4954      C4955   1.407       .  A
C4954     Br4970   1.919       .  S
C4955      C4956   1.404       .  A
C4955      H4959   1.083       .  S
C4956      C4960   1.480       .  S
C4956      C4957   1.402       .  A
C4957      C4958   1.395       .  A
C4957     Br4969   1.920       .  S
C4958      H4961   1.083       .  S
C4960      C4962   1.403       .  A
C4960      C4966   1.406       .  A
C4962      C4963   1.401       .  A
C4962      H4967   1.084       .  S
C4963      C4964   1.410       .  A
C4963     Br4971   1.916       .  S
C4964      C4965   1.407       .  A
C4965      C4966   1.401       .  A
C4965      H4968   1.084       .  S
C4966     Br4972   1.918       .  S
C4973      C4974   1.417       .  A
C4973      C4978   1.410       .  A
C4974      C4975   1.402       .  A
C4974     Br4990   1.921       .  S
C4975      C4976   1.402       .  A
C4975      H4979   1.084       .  S
C4976      C4980   1.485       .  S
C4976      C4977   1.407       .  A
C4977      C4978   1.401       .  A
C4977     Br4989   1.919       .  S
C4978      H4981   1.083       .  S
C4980      C4982   1.399       .  A
C4980      C4986   1.403       .  A
C4982      C4983   1.404       .  A
C4982      H4987   1.084       .  S
C4983      C4984   1.426       .  A
C4983     Br4991   1.918       .  S
C4984      C4985   1.416       .  A
C4985      C4986   1.399       .  A
C4985      H4988   1.082       .  S
C4986     Br4992   1.920       .  S
C4993      C4994   1.413       .  A
C4993      C4998   1.405       .  A
C4994      C4995   1.403       .  A
C4994     Br5010   1.920       .  S
C4995      C4996   1.402       .  A
C4995      H4999   1.083       .  S
C4996      C5000   1.476       .  S
C4996      C4997   1.405       .  A
C4997      C4998   1.396       .  A
C4997     Br5009   1.919       .  S
C4998      H5001   1.084       .  S
C5000      C5002   1.404       .  A
C5000      C5006   1.403       .  A
C5002      C5003   1.403       .  A
C5002      H5007   1.083       .  S
C5003      C5004   1.411       .  A
C5003     Br5011   1.917       .  S
C5004      C5005   1.408       .  A
C5005      C5006   1.395       .  A
C5005      H5008   1.083       .  S
C5006     Br5012   1.918       .  S
C5013      C5014   1.412       .  A
C5013      C5018   1.403       .  A
C5014      C5015   1.400       .  A
C5014     Br5030   1.920       .  S
C5015      C5016   1.402       .  A
C5015      H5019   1.083       .  S
C5016      C5020   1.479       .  S
C5016      C5017   1.410       .  A
C5017      C5018   1.399       .  A
C5017     Br5029   1.920       .  S
C5018      H5021   1.084       .  S
C5020      C5022   1.404       .  A
C5020      C5026   1.407       .  A
C5022      C5023   1.401       .  A
C5022      H5027   1.083       .  S
C5023      C5024   1.408       .  A
C5023     Br5031   1.915       .  S
C5024      C5025   1.406       .  A
C5025      C5026   1.396       .  A
C5025      H5028   1.084       .  S
C5026     Br5032   1.919       .  S
C5033      C5034   1.426       .  A
C5033      C5038   1.414       .  A
C5034      C5035   1.401       .  A
C5034     Br5050   1.925       .  S
C5035      C5036   1.398       .  A
C5035      H5039   1.084       .  S
C5036      C5040   1.485       .  S
C5036      C5037   1.405       .  A
C5037      C5038   1.402       .  A
C5037     Br5049   1.919       .  S
C5038      H5041   1.076       .  S
C5040      C5042   1.400       .  A
C5040      C5046   1.406       .  A
C5042      C5043   1.401       .  A
C5042      H5047   1.084       .  S
C5043      C5044   1.422       .  A
C5043     Br5051   1.923       .  S
C5044      C5045   1.412       .  A
C5045      C5046   1.403       .  A
C5045      H5048   1.083       .  S
C5046     Br5052   1.918       .  S
C5053      C5054   1.414       .  A
C5053      C5058   1.406       .  A
C5054      C5055   1.398       .  A
C5054     Br5070   1.921       .  S
C5055      C5056   1.400       .  A
C5055      H5059   1.084       .  S
C5056      C5060   1.469       .  S
C5056      C5057   1.404       .  A
C5057      C5058   1.395       .  A
C5057     Br5069   1.919       .  S
C5058      H5061   1.083       .  S
C5060      C5062   1.398       .  A
C5060      C5066   1.399       .  A
C5062      C5063   1.402       .  A
C5062      H5067   1.083       .  S
C5063      C5064   1.423       .  A
C5063     Br5071   1.922       .  S
C5064      C5065   1.415       .  A
C5065      C5066   1.390       .  A
C5065      H5068   1.076       .  S
C5066     Br5072   1.922       .  S
C5073      C5074   1.412       .  A
C5073      C5078   1.405       .  A
C5074      C5075   1.400       .  A
C5074     Br5090   1.916       .  S
C5075      C5076   1.402       .  A
C5075      H5079   1.084       .  S
C5076      C5080   1.482       .  S
C5076      C5077   1.407       .  A
C5077      C5078   1.401       .  A
C5077     Br5089   1.917       .  S
C5078      H5081   1.083       .  S
C5080      C5082   1.403       .  A
C5080      C5086   1.404       .  A
C5082      C5083   1.405       .  A
C5082      H5087   1.084       .  S
C5083      C5084   1.419       .  A
C5083     Br5091   1.920       .  S
C5084      C5085   1.411       .  A
C5085      C5086   1.397       .  A
C5085      H5088   1.083       .  S
C5086     Br5092   1.920       .  S
C5093      C5094   1.412       .  A
C5093      C5098   1.404       .  A
C5094      C5095   1.400       .  A
C5094     Br5110   1.920       .  S
C5095      C5096   1.403       .  A
C5095      H5099   1.084       .  S
C5096      C5100   1.489       .  S
C5096      C5097   1.413       .  A
C5097      C5098   1.405       .  A
C5097     Br5109   1.919       .  S
C5098      H5101   1.083       .  S
C5100      C5102   1.405       .  A
C5100      C5106   1.411       .  A
C5102      C5103   1.402       .  A
C5102      H5107   1.083       .  S
C5103      C5104   1.408       .  A
C5103     Br5111   1.915       .  S
C5104      C5105   1.403       .  A
C5105      C5106   1.402       .  A
C5105      H5108   1.082       .  S
C5106     Br5112   1.919       .  S
C5113      C5114   1.414       .  A
C5113      C5118   1.405       .  A
C5114      C5115   1.404       .  A
C5114     Br5130   1.920       .  S
C5115      C5116   1.403       .  A
C5115      H5119   1.083       .  S
C5116      C5120   1.482       .  S
C5116      C5117   1.408       .  A
C5117      C5118   1.398       .  A
C5117     Br5129   1.921       .  S
C5118      H5121   1.084       .  S
C5120      C5122   1.401       .  A
C5120      C5126   1.411       .  A
C5122      C5123   1.398       .  A
C5122      H5127   1.083       .  S
C5123      C5124   1.411       .  A
C5123     Br5131   1.921       .  S
C5124      C5125   1.401       .  A
C5125      C5126   1.402       .  A
C5125      H5128   1.084       .  S
C5126     Br5132   1.918       .  S
C5133      C5134   1.418       .  A
C5133      C5138   1.406       .  A
C5134      C5135   1.394       .  A
C5134     Br5150   1.924       .  S
C5135      C5136   1.398       .  A
C5135      H5139   1.084       .  S
C5136      C5140   1.480       .  S
C5136      C5137   1.411       .  A
C5137      C5138   1.403       .  A
C5137     Br5149   1.919       .  S
C5138      H5141   1.083       .  S
C5140      C5142   1.404       .  A
C5140      C5146   1.408       .  A
C5142      C5143   1.400       .  A
C5142      H5147   1.084       .  S
C5143      C5144   1.409       .  A
C5143     Br5151   1.913       .  S
C5144      C5145   1.406       .  A
C5145      C5146   1.397       .  A
C5145      H5148   1.084       .  S
C5146     Br5152   1.920       .  S
