geometry optimzed in LAMMPS
_audit_creation_date              2020-11-30 
_audit_creation_method            'lammps2cif' 
_symmetry_space_group_name_H-M    'P1' 
_symmetry_Int_Tables_number       1 
_symmetry_cell_setting            triclinic 
loop_ 
_symmetry_equiv_pos_as_xyz 
  x,y,z 
_cell_length_a                    49.80708186 
_cell_length_b                    49.63680522959949 
_cell_length_c                    25.994648268416427 
_cell_angle_alpha                 90.37858933076836 
_cell_angle_beta                  90.07303396214387 
_cell_angle_gamma                 120.69119788943293 
loop_ 
_atom_site_label 
_atom_site_type_symbol 
_atom_site_fract_x 
_atom_site_fract_y 
_atom_site_fract_z 
_atom_site_charge 
C1          C  0.94549435  0.90462939  0.96011197    -0.09800
C2          C  0.93326407  0.87277338  0.94825360    -0.03700
C3          C  0.94504551  0.85492578  0.97027360    -0.09800
C4          C  0.97369689  0.87056665  0.99816744     0.11200
C5          C  0.98779149  0.90307762  0.00744607    -0.01600
C6          C  0.97242754  0.91920771  0.99202609     0.11000
C7          C  0.98592872  0.95019639  0.00769866    -0.11600
C8          C  0.01769397  0.96705635  0.01356954    -0.11600
C9          C  0.03212960  0.95312742  0.03821916     0.11000
C10         C  0.01686533  0.91990658  0.03445014    -0.01600
C11         C  0.98894991  0.85517149  0.01648793    -0.11700
C12         C  0.01746545  0.87169463  0.04344623    -0.11700
C13         C  0.03175144  0.90420018  0.05282707     0.11200
C14         C  0.06095781  0.92179354  0.07847894    -0.09800
C15         C  0.07310581  0.95395533  0.08870659    -0.03700
C16         C  0.06040875  0.97084397  0.06642901    -0.09800
H17         H  0.97328536  0.96249077  0.00990305     0.08400
H18         H  0.03005071  0.99111133  0.00077341     0.08400
H19         H  0.97906857  0.83033455  0.00949330     0.08600
H20         H  0.02831994  0.85889332  0.05697695     0.08600
H21         H  0.91253805  0.86086891  0.92439674     0.05000
H22         H  0.09504457  0.96674706  0.10924598     0.05000
O23         O  0.66188180  0.57753037  0.21652384    -0.56800
C24         C  0.61854045  0.49273774  0.30552454     0.75900
O25         O  0.70912841  0.55169381  0.34089684    -0.57900
C26         C  0.68669741  0.60416117  0.22046367     0.75800
C27         C  0.64936490  0.58687208  0.38013102     0.78200
Cd28       Cd  0.66694573  0.55831002  0.30099638     1.37500
O29         O  0.62254795  0.50801217  0.26438645    -0.56800
O30         O  0.63315098  0.57578949  0.33951859    -0.55600
C31         C  0.71448718  0.54155769  0.29953840     0.78200
O32         O  0.67407030  0.58547142  0.38308863    -0.57900
O33         O  0.63442533  0.50865656  0.34393212    -0.56400
O34         O  0.70184327  0.60968987  0.26220686    -0.56400
O35         O  0.70073365  0.54304840  0.25970460    -0.55600
O36         O  0.74409710  0.70769892  0.87980961    -0.56800
C37         C  0.82696271  0.75093807  0.96760809     0.75900
O38         O  0.76537964  0.78209994  0.99720747    -0.57900
C39         C  0.71601182  0.70100402  0.88475980     0.75800
C40         C  0.73319595  0.69003131  0.04911627     0.78200
Cd41       Cd  0.76158138  0.73281662  0.96489455     1.37500
O42         O  0.80993849  0.73615398  0.92917477    -0.56800
O43         O  0.74001272  0.68171510  0.00730585    -0.55600
C44         C  0.77543358  0.79676795  0.95525837     0.78200
O45         O  0.73935643  0.71814657  0.05203973    -0.57900
O46         O  0.81287191  0.75356058  0.00593759    -0.56400
O47         O  0.70874863  0.70798447  0.92741876    -0.56400
O48         O  0.77508391  0.78064822  0.91722315    -0.55600
O49         O  0.59971849  0.64914237  0.55102580    -0.56800
C50         C  0.56233526  0.69061399  0.63444386     0.75900
O51         O  0.53000958  0.60598832  0.68574059    -0.57900
C52         C  0.60597252  0.62743701  0.55385807     0.75800
C53         C  0.62664679  0.65985367  0.71743064     0.78200
Cd54       Cd  0.57907208  0.64276907  0.63903310     1.37500
O55         O  0.57247828  0.68362773  0.59495349    -0.56800
O56         O  0.63056642  0.67762323  0.67988852    -0.55600
C57         C  0.51375985  0.59367156  0.64559061     0.78200
O58         O  0.60081696  0.63414927  0.71852010    -0.57900
O59         O  0.56416164  0.67868156  0.67615758    -0.56400
O60         O  0.60008055  0.61305403  0.59619837    -0.56400
O61         O  0.52876328  0.60066307  0.60386989    -0.55600
C62         C  0.72877021  0.43990771  0.28578035    -0.09800
C63         C  0.69615404  0.42131578  0.28734632    -0.03700
C64         C  0.68031339  0.38845669  0.28302804    -0.09800
C65         C  0.69898129  0.37475863  0.27238036     0.11200
C66         C  0.73149567  0.39260960  0.28269072    -0.01600
C67         C  0.74687658  0.42558335  0.28648141     0.11000
C68         C  0.77946654  0.44287443  0.29329298    -0.11600
C69         C  0.79609991  0.42757659  0.30179046    -0.11600
C70         C  0.78035713  0.39474509  0.30499909     0.11000
C71         C  0.74799823  0.37712425  0.29375645    -0.01600
C72         C  0.68640791  0.34314557  0.25768780    -0.11700
C73         C  0.70187532  0.32734649  0.27258414    -0.11700
C74         C  0.73164332  0.34397904  0.29588285     0.11200
C75         C  0.74606807  0.32902795  0.32018411    -0.09800
C76         C  0.77802269  0.34686273  0.33167230    -0.03700
C77         C  0.79570109  0.37891477  0.32068886    -0.09800
H78         H  0.79202297  0.46823492  0.29443047     0.08400
H79         H  0.82096603  0.44159638  0.30916781     0.08400
H80         H  0.66262523  0.32954924  0.24343295     0.08600
H81         H  0.68985705  0.30211968  0.26829235     0.08600
H82         H  0.68337748  0.43315587  0.29505531     0.05000
H83         H  0.78981805  0.33517678  0.34631896     0.05000
C84         C  0.59817092  0.37255284  0.31374222    -0.09800
C85         C  0.62720766  0.38325763  0.28960063    -0.03700
C86         C  0.64622369  0.37059435  0.30016843    -0.09800
C87         C  0.63318742  0.34377995  0.33205148     0.11200
C88         C  0.60167525  0.32902355  0.34880617    -0.01600
C89         C  0.58439339  0.34409063  0.34201319     0.11000
C90         C  0.55410969  0.32988632  0.36296616    -0.11600
C91         C  0.54099142  0.30085032  0.38850684    -0.11600
C92         C  0.55790570  0.28531095  0.39469905     0.11000
C93         C  0.58846191  0.29968133  0.37485323    -0.01600
C94         C  0.64994563  0.32983591  0.34656053    -0.11700
C95         C  0.63398060  0.29790888  0.35142030    -0.11700
C96         C  0.60544104  0.28377166  0.37645231     0.11200
C97         C  0.59402862  0.25518658  0.40329803    -0.09800
C98         C  0.56455409  0.24268271  0.42632009    -0.03700
C99         C  0.54535716  0.25566820  0.41918855    -0.09800
H100        H  0.54022365  0.34085386  0.35874600     0.08400
H101        H  0.51754797  0.29062395  0.40357134     0.08400
H102        H  0.67511365  0.34228789  0.34882764     0.08600
H103        H  0.64502177  0.28552960  0.33843816     0.08600
H104        H  0.63621228  0.40368710  0.26535416     0.05000
H105        H  0.55483564  0.22033713  0.44541491     0.05000
C106        C  0.72969851  0.29468345  0.33053306    -0.09800
C107        C  0.74225388  0.27762759  0.30915678    -0.03700
C108        C  0.72824439  0.24519359  0.31596173    -0.09800
C109        C  0.69789166  0.22845087  0.33718239     0.11200
C110        C  0.68526640  0.24558849  0.35993173    -0.01600
C111        C  0.70300552  0.27872899  0.36203613     0.11000
C112        C  0.69352335  0.29435782  0.39618651    -0.11600
C113        C  0.66412712  0.27796807  0.41969185    -0.11600
C114        C  0.64234118  0.24751973  0.40198715     0.11000
C115        C  0.65417745  0.22995734  0.37798414    -0.01600
C116        C  0.67928388  0.19560805  0.33439183    -0.11700
C117        C  0.64763612  0.18040982  0.34831288    -0.11700
C118        C  0.63443855  0.19760795  0.36788666     0.11200
C119        C  0.60203189  0.18415163  0.37563241    -0.09800
C120        C  0.59011276  0.20337818  0.38961687    -0.03700
C121        C  0.60945215  0.23537864  0.40155069    -0.09800
H122        H  0.70808124  0.31931868  0.40307620     0.08400
H123        H  0.65663708  0.29088070  0.44349154     0.08400
H124        H  0.68846307  0.18185923  0.31793609     0.08600
H125        H  0.63333055  0.15537461  0.34197423     0.08600
H126        H  0.76426593  0.29011942  0.28884294     0.05000
H127        H  0.56498863  0.19304432  0.38879836     0.05000
C128        C  0.92717731  0.92018752  0.94414703    -0.09800
C129        C  0.89456174  0.90238165  0.94947906    -0.03700
C130        C  0.87577013  0.91583279  0.94830687    -0.09800
C131        C  0.88994139  0.94872166  0.94834426     0.11200
C132        C  0.92279425  0.96710218  0.94376279    -0.01600
C133        C  0.94054428  0.95272916  0.93328150     0.11000
C134        C  0.97189855  0.97225894  0.91835457    -0.11600
C135        C  0.98780671  0.00405665  0.93282279    -0.11600
C136        C  0.97147970  0.01727178  0.95558515     0.11000
C137        C  0.93834885  0.99968524  0.95386952    -0.01600
C138        C  0.87274839  0.96380460  0.95509317    -0.11700
C139        C  0.88807294  0.99633392  0.96229518    -0.11700
C140        C  0.92087504  0.01427573  0.96451001     0.11200
C141        C  0.93695742  0.04623756  0.97844520    -0.09800
C142        C  0.96906902  0.06158108  0.98902619    -0.03700
C143        C  0.98675036  0.04753321  0.97875881    -0.09800
H144        H  0.98532384  0.96214338  0.90418099     0.08400
H145        H  0.01289814  0.01771595  0.92833309     0.08400
H146        H  0.84750759  0.95042511  0.95698883     0.08600
H147        H  0.87416590  0.00707616  0.96927455     0.08600
H148        H  0.88315262  0.87755667  0.95729238     0.05000
H149        H  0.98075583  0.08557106  0.00313942     0.05000
O150        O  0.38661331  0.04587108  0.47824309    -0.56800
C151        C  0.44147005  0.13577689  0.40969796     0.75900
O152        O  0.46337042  0.07671423  0.34361218    -0.57900
C153        C  0.39560822  0.02641909  0.48526138     0.75800
C154        C  0.37126500  0.03964699  0.31926174     0.78200
Cd155      Cd  0.41916547  0.06896686  0.39865600     1.37500
O156        O  0.43216141  0.11767557  0.44814856    -0.56800
O157        O  0.37205973  0.05907166  0.35193453    -0.55600
C158        C  0.48259437  0.08391017  0.38052534     0.78200
O159        O  0.39224681  0.03256189  0.32398030    -0.57900
O160        O  0.43713343  0.12244765  0.36638389    -0.56400
O161        O  0.41402329  0.02630952  0.45192187    -0.56400
O162        O  0.47139294  0.08054260  0.42518399    -0.55600
O163        O  0.33337532  0.91751023  0.66061203    -0.56800
C164        C  0.29561652  0.82751976  0.71474413     0.75900
O165        O  0.38078867  0.87802744  0.77640580    -0.57900
C166        C  0.36146500  0.93920998  0.65450159     0.75800
C167        C  0.32531203  0.91766451  0.81957919     0.78200
Cd168      Cd  0.34403079  0.89217135  0.73371012     1.37500
O169        O  0.30471760  0.84759163  0.67912153    -0.56800
O170        O  0.30662000  0.89828760  0.78659952    -0.55600
C171        C  0.38940589  0.87153413  0.73447729     0.78200
O172        O  0.35380597  0.92584460  0.81391585    -0.57900
O173        O  0.30628392  0.83819361  0.75918699    -0.56400
O174        O  0.38121544  0.93957287  0.68566668    -0.56400
O175        O  0.38015944  0.87836095  0.69400402    -0.55600
O176        O  0.26472295  0.97095559  0.13631108    -0.56800
C177        C  0.17927767  0.93752280  0.06442704     0.75900
O178        O  0.23685599  0.01971417  0.00307479    -0.57900
C179        C  0.28501017  0.99924203  0.14646124     0.75800
C180        C  0.27343781  0.96175674  0.97803238     0.78200
Cd181      Cd  0.24522086  0.98256807  0.05592643     1.37500
O182        O  0.19742544  0.94419648  0.10278999    -0.56800
O183        O  0.25095164  0.94302490  0.00608021    -0.55600
C184        C  0.23007037  0.03138805  0.04092968     0.78200
O185        O  0.28369522  0.99065502  0.98618815    -0.57900
O186        O  0.19223991  0.94902424  0.02196917    -0.56400
O187        O  0.28738007  0.01941507  0.11439854    -0.56400
O188        O  0.23405822  0.02330505  0.08492261    -0.55600
O189        O  0.92674202  0.30624675  0.38373139    -0.56800
C190        C  0.84588433  0.26755057  0.29238114     0.75900
O191        O  0.90627388  0.35981559  0.26182603    -0.57900
C192        C  0.95499886  0.32828764  0.38155313     0.75800
C193        C  0.93991571  0.30092561  0.21675319     0.78200
Cd194      Cd  0.91154121  0.31640707  0.29836384     1.37500
O195        O  0.86267235  0.27003645  0.33101924    -0.56800
O196        O  0.92121642  0.28120268  0.24880698    -0.55600
C197        C  0.89682555  0.36532049  0.30366144     0.78200
O198        O  0.94623532  0.32897608  0.22238601    -0.57900
O199        O  0.86009234  0.28576816  0.25545200    -0.56400
O200        O  0.96301390  0.34436462  0.34089235    -0.56400
O201        O  0.89829681  0.35115619  0.34281338    -0.55600
O202        O  0.06221799  0.38323210  0.72106682    -0.56800
C203        C  0.10308776  0.46248465  0.62839734     0.75900
O204        O  0.13510202  0.40295035  0.59925794    -0.57900
C205        C  0.05711357  0.35544992  0.71895397     0.75800
C206        C  0.04053147  0.36657705  0.55400178     0.78200
Cd207      Cd  0.08596217  0.39750953  0.63471147     1.37500
O208        O  0.08959267  0.44635003  0.66786990    -0.56800
O209        O  0.03432066  0.37657976  0.59452410    -0.55600
C210        C  0.14985669  0.41179284  0.64161553     0.78200
O211        O  0.06750542  0.36991380  0.55151301    -0.57900
O212        O  0.10550336  0.44764963  0.59079477    -0.56400
O213        O  0.06479465  0.34740232  0.67771220    -0.56400
O214        O  0.13390199  0.41011539  0.68048726    -0.55600
O215        O  0.99467697  0.23827156  0.88334859    -0.56800
C216        C  0.95412054  0.16230422  0.97762649     0.75900
O217        O  0.04583477  0.22271557  0.01620706    -0.57900
C218        C  0.01362611  0.26751422  0.88683099     0.75800
C219        C  0.98453081  0.25479115  0.05314626     0.78200
Cd220      Cd  0.00281838  0.22722334  0.97351504     1.37500
O221        O  0.95748234  0.17854525  0.93805421    -0.56800
O222        O  0.96551711  0.23522913  0.02069751    -0.55600
C223        C  0.05385140  0.21491037  0.97507547     0.78200
O224        O  0.01300176  0.26285715  0.04805050    -0.57900
O225        O  0.97155059  0.17677854  0.01561170    -0.56400
O226        O  0.02655176  0.27765574  0.93027915    -0.56400
O227        O  0.04089045  0.21657793  0.93441775    -0.55600
C228        C  0.07995212  0.00663814  0.06635156    -0.09800
C229        C  0.11204673  0.02008876  0.05647524    -0.03700
C230        C  0.13127136  0.05156795  0.04267631    -0.09800
C231        C  0.11776248  0.07014727  0.03347535     0.11200
C232        C  0.08536420  0.05682654  0.04176095    -0.01600
C233        C  0.06770553  0.02714776  0.06547213     0.11000
C234        C  0.03721816  0.01804332  0.08163696    -0.11600
C235        C  0.02101114  0.03061703  0.05678959    -0.11600
C236        C  0.03678279  0.05578186  0.02260685     0.11000
C237        C  0.06983120  0.07179529  0.02207045    -0.01600
C238        C  0.13497404  0.10082928  0.01415470    -0.11700
C239        C  0.11984850  0.11685562  0.99887515    -0.11700
C240        C  0.08707656  0.10185300  0.99980989     0.11200
C241        C  0.07070373  0.11529139  0.97763852    -0.09800
C242        C  0.03838663  0.09632258  0.96934424    -0.03700
C243        C  0.02109938  0.06618306  0.98999724    -0.09800
H244        H  0.02415996  0.99745913  0.10535006     0.08400
H245        H  0.99611959  0.01982816  0.06267309     0.08400
H246        H  0.15999989  0.11213916  0.00925457     0.08600
H247        H  0.13365657  0.14006305  0.98278311     0.08600
H248        H  0.12244056  0.00553236  0.05618171     0.05000
H249        H  0.02611262  0.10598235  0.94937457     0.05000
C250        C  0.27090894  0.70722230  0.70039950    -0.09800
C251        C  0.30318702  0.72052956  0.70729001    -0.03700
C252        C  0.31694970  0.70236027  0.71667741    -0.09800
C253        C  0.29636600  0.66946689  0.72242758     0.11200
C254        C  0.26539504  0.65576845  0.70353261    -0.01600
C255        C  0.25180870  0.67440772  0.69533092     0.11000
C256        C  0.22028377  0.65974161  0.68012778    -0.11600
C257        C  0.20348589  0.62762885  0.66817605    -0.11600
C258        C  0.21814945  0.60976982  0.66979104     0.11000
C259        C  0.24905643  0.62378820  0.68895914    -0.01600
C260        C  0.30623424  0.64919957  0.74063296    -0.11700
C261        C  0.29160478  0.61831112  0.72170510    -0.11700
C262        C  0.26450837  0.60643085  0.69111384     0.11200
C263        C  0.25182119  0.57769807  0.66358603    -0.09800
C264        C  0.22119167  0.56407581  0.64509158    -0.03700
C265        C  0.20350509  0.57861939  0.65125534    -0.09800
H266        H  0.20894626  0.67325172  0.67521524     0.08400
H267        H  0.17963617  0.61731647  0.65464013     0.08400
H268        H  0.32817469  0.65849111  0.76110891     0.08600
H269        H  0.30234367  0.60444929  0.72897856     0.08600
H270        H  0.31770111  0.74570467  0.70349463     0.05000
H271        H  0.21037788  0.54102573  0.62725444     0.05000
C272        C  0.46133831  0.70813465  0.62088530    -0.09800
C273        C  0.44225939  0.67714948  0.60288596    -0.03700
C274        C  0.41053247  0.65887262  0.61617242    -0.09800
C275        C  0.39759514  0.67447483  0.64353968     0.11200
C276        C  0.41530312  0.70727809  0.65349441    -0.01600
C277        C  0.44758749  0.72407337  0.64395547     0.11000
C278        C  0.46500173  0.75593696  0.65847739    -0.11600
C279        C  0.45048163  0.77083817  0.68179168    -0.11600
C280        C  0.41818990  0.75423140  0.69176848     0.11000
C281        C  0.40057001  0.72237373  0.67721578    -0.01600
C282        C  0.36711001  0.65898717  0.66085268    -0.11700
C283        C  0.35160573  0.67520688  0.66335010    -0.11700
C284        C  0.36765154  0.70543410  0.68347240     0.11200
C285        C  0.35225278  0.71842831  0.71101092    -0.09800
C286        C  0.37088270  0.74943474  0.72876751    -0.03700
C287        C  0.40268539  0.76810572  0.71610844    -0.09800
H288        H  0.48987869  0.76947099  0.65158947     0.08400
H289        H  0.46470947  0.79532806  0.69258190     0.08400
H290        H  0.35412081  0.63404976  0.66899804     0.08600
H291        H  0.32741605  0.66317809  0.65419346     0.08600
H292        H  0.45331987  0.66633422  0.58250172     0.05000
H293        H  0.36002096  0.76028159  0.74973822     0.05000
C294        C  0.39364044  0.62343751  0.60729265    -0.09800
C295        C  0.41076763  0.60849047  0.61673782    -0.03700
C296        C  0.39645634  0.57598351  0.62310503    -0.09800
C297        C  0.36371431  0.55769386  0.62593183     0.11200
C298        C  0.34609696  0.57231730  0.61734805    -0.01600
C299        C  0.36073594  0.60362670  0.59990888     0.11000
C300        C  0.34126692  0.61445295  0.58153495    -0.11600
C301        C  0.31038654  0.60043556  0.59945287    -0.11600
C302        C  0.29764550  0.57289108  0.62880663     0.11000
C303        C  0.31415850  0.55661610  0.63047917    -0.01600
C304        C  0.34813221  0.52584259  0.63936858    -0.11700
C305        C  0.31598320  0.50955154  0.64856481    -0.11700
C306        C  0.29912223  0.52518361  0.64686237     0.11200
C307        C  0.26774472  0.51058684  0.66208348    -0.09800
C308        C  0.25401790  0.52888057  0.67045647    -0.03700
C309        C  0.26873153  0.56026866  0.65505454    -0.09800
H310        H  0.35124970  0.63674261  0.56193697     0.08400
H311        H  0.29718993  0.61187961  0.59228099     0.08400
H312        H  0.36084692  0.51370017  0.64446687     0.08600
H313        H  0.30481519  0.48531499  0.66038650     0.08600
H314        H  0.43575348  0.62223775  0.62278867     0.05000
H315        H  0.23049874  0.51778837  0.68562231     0.05000
C316        C  0.07588051  0.18747819  0.92694750    -0.11200
C317        C  0.07369221  0.20043131  0.97394507     0.05800
C318        C  0.08317671  0.19198671  0.01932890    -0.06500
C319        C  0.08814930  0.16656446  0.01817839    -0.07200
C320        C  0.08387127  0.14955844  0.97246590    -0.01800
C321        C  0.08064057  0.16202872  0.92588767     0.05000
N322        N  0.07803448  0.14663570  0.87790656     0.67500
H323        H  0.07014400  0.19448508  0.89113953     0.16400
H324        H  0.09139358  0.15770544  0.05421846     0.16100
N325        N  0.08493268  0.20681606  0.06753505     0.75200
O326        O  0.05141596  0.12941647  0.85795933    -0.38200
O327        O  0.10195524  0.15640014  0.85017527    -0.38200
O328        O  0.06476097  0.19193597  0.10160028    -0.38900
O329        O  0.10988893  0.23157071  0.07986639    -0.38900
C330        C  0.19816077  0.43531016  0.69513257    -0.06700
C331        C  0.18436635  0.42699150  0.64575419     0.05800
C332        C  0.20383392  0.43984043  0.60230756    -0.06500
C333        C  0.23464626  0.46439835  0.60909371    -0.07200
C334        C  0.24621853  0.47639306  0.65829823    -0.01800
C335        C  0.22912947  0.45973605  0.70148467     0.05000
N336        N  0.24198544  0.46982243  0.75195032     0.67500
H337        H  0.18415891  0.42486920  0.72908312     0.16400
H338        H  0.24792296  0.47699499  0.57556402     0.16100
N339        N  0.19176717  0.43167850  0.55106843     0.75200
O340        O  0.23226983  0.48363072  0.78060892    -0.38200
O341        O  0.26593255  0.46891693  0.76497087    -0.38200
O342        O  0.18129705  0.44717660  0.52948108    -0.38900
O343        O  0.19885397  0.41511105  0.52381687    -0.38900
C344        C  0.12418070  0.51276739  0.67619924    -0.11200
C345        C  0.11882791  0.49723968  0.62856382     0.05800
C346        C  0.13516612  0.51504836  0.58501278    -0.06500
C347        C  0.16031009  0.54565070  0.59176070    -0.07200
C348        C  0.16960235  0.55856368  0.64121844    -0.01800
C349        C  0.14955516  0.54328032  0.68287717     0.05000
N350        N  0.15757927  0.55615929  0.73372775     0.67500
H351        H  0.11135294  0.50000643  0.70986716     0.16400
H352        H  0.17520912  0.55753858  0.55929593     0.16100
N353        N  0.12901717  0.50148514  0.53458088     0.75200
O354        O  0.17534902  0.55094311  0.76113083    -0.38200
O355        O  0.14210377  0.56695834  0.75449198    -0.38200
O356        O  0.11173643  0.50590337  0.50454345    -0.38900
O357        O  0.14659869  0.49245833  0.51626013    -0.38900
C358        C  0.02824388  0.30096425  0.75150136    -0.11200
C359        C  0.04323271  0.33323177  0.76212114     0.05800
C360        C  0.04585195  0.34333797  0.81372270    -0.06500
C361        C  0.03499961  0.32134993  0.85335991    -0.07200
C362        C  0.02112769  0.28913183  0.84292485    -0.01800
C363        C  0.01695948  0.27892254  0.79110587     0.05000
N364        N  0.00259485  0.24647675  0.77779250     0.67500
H365        H  0.02557685  0.29270637  0.71207304     0.16400
H366        H  0.03821221  0.32971785  0.89277997     0.16100
N367        N  0.06109329  0.37585279  0.82699617     0.75200
O368        O  0.97376099  0.23120506  0.76760742    -0.38200
O369        O  0.01950243  0.23562772  0.76380986    -0.38200
O370        O  0.04500884  0.38733590  0.84246294    -0.38900
O371        O  0.09023258  0.39088736  0.83441756    -0.38900
C372        C  0.96540422  0.32770890  0.47515106    -0.11200
C373        C  0.97714825  0.33557089  0.42494386     0.05800
C374        C  0.00984576  0.35159100  0.41773802    -0.06500
C375        C  0.02989139  0.35985830  0.46028062    -0.07200
C376        C  0.01817526  0.35343131  0.51051405    -0.01800
C377        C  0.98553946  0.33686643  0.51780314     0.05000
N378        N  0.97241995  0.32913939  0.56817716     0.67500
H379        H  0.94044513  0.31537648  0.48157052     0.16400
H380        H  0.05487726  0.37267111  0.45399686     0.16100
N381        N  0.02323856  0.36001816  0.36762772     0.75200
O382        O  0.96294334  0.34573629  0.58921817    -0.38200
O383        O  0.96428789  0.30256220  0.58639996    -0.38200
O384        O  0.03290059  0.38740001  0.35161005    -0.38900
O385        O  0.03213026  0.34323970  0.34548358    -0.38900
C386        C  0.93397407  0.25964689  0.15689625    -0.11200
C387        C  0.95239503  0.29063495  0.17435511     0.05800
C388        C  0.98184712  0.31010606  0.15169837    -0.06500
C389        C  0.99246424  0.29796009  0.11294430    -0.07200
C390        C  0.97360718  0.26699701  0.09508971    -0.01800
C391        C  0.94402439  0.24788781  0.11735558     0.05000
N392        N  0.92407351  0.21611140  0.10118936     0.67500
H393        H  0.91127132  0.24437352  0.17365343     0.16400
H394        H  0.01516421  0.31294851  0.09601198     0.16100
N395        N  0.00135806  0.34194360  0.16792274     0.75200
O396        O  0.92383592  0.19436760  0.12643212    -0.38200
O397        O  0.90232282  0.20961962  0.06953909    -0.38200
O398        O  0.02409838  0.34914275  0.19773851    -0.38900
O399        O  0.99976015  0.36331103  0.14463093    -0.38900
C400        C  0.19714523  0.04547092  0.98903061    -0.11200
C401        C  0.21426344  0.04981470  0.03447121     0.05800
C402        C  0.20955120  0.06515921  0.07659257    -0.06500
C403        C  0.18453407  0.07061709  0.07570186    -0.07200
C404        C  0.16442517  0.06154667  0.03310490    -0.01800
C405        C  0.17234248  0.05121651  0.98809641     0.05000
N406        N  0.15272964  0.04230433  0.94353790     0.67500
H407        H  0.20060136  0.03428924  0.95586725     0.16400
H408        H  0.17890429  0.07891866  0.11035155     0.16100
N409        N  0.22852751  0.07340209  0.12187303     0.75200
O410        O  0.16011002  0.06129167  0.90686124    -0.38200
O411        O  0.13183243  0.01399032  0.93677185    -0.38200
O412        O  0.25219027  0.10055689  0.12575181    -0.38900
O413        O  0.21782276  0.05692290  0.16169757    -0.38900
C414        C  0.41633194  0.81496386  0.76961525    -0.11200
C415        C  0.41570401  0.80241712  0.72081720     0.05800
C416        C  0.41568421  0.81896159  0.67701170    -0.06500
C417        C  0.41080078  0.84427504  0.68257554    -0.07200
C418        C  0.40615475  0.85368728  0.73146424    -0.01800
C419        C  0.41176308  0.84050065  0.77532670     0.05000
N420        N  0.40997862  0.85061463  0.82606549     0.67500
H421        H  0.41668794  0.80262465  0.80363324     0.16400
H422        H  0.40760187  0.85451054  0.64809659     0.16100
N423        N  0.41591310  0.80746339  0.62650352     0.75200
O424        O  0.38514239  0.83517610  0.85139765    -0.38200
O425        O  0.43490274  0.86956101  0.84938968    -0.38200
O426        O  0.39084337  0.78632375  0.60617636    -0.38900
O427        O  0.44152252  0.81667696  0.60387974    -0.38900
C428        C  0.26410724  0.77310958  0.74799749    -0.11200
C429        C  0.27624701  0.79309037  0.70533299     0.05800
C430        C  0.27517162  0.77961442  0.65661335    -0.06500
C431        C  0.26703160  0.74809341  0.65322080    -0.07200
C432        C  0.25982051  0.72975847  0.69751974    -0.01800
C433        C  0.25546110  0.74149939  0.74413091     0.05000
N434        N  0.24711500  0.72286068  0.78953409     0.67500
H435        H  0.26385289  0.78260530  0.78553682     0.16400
H436        H  0.27056794  0.73926642  0.61716497     0.16100
N437        N  0.28656741  0.79839661  0.61153989     0.75200
O438        O  0.26801338  0.72694192  0.82143366    -0.38200
O439        O  0.22011226  0.69909117  0.79327944    -0.38200
O440        O  0.31492344  0.81030954  0.59953201    -0.38900
O441        O  0.26735902  0.79700091  0.57839631    -0.38900
C442        C  0.28196888  0.91082845  0.87612181    -0.11200
C443        C  0.31350284  0.92929531  0.86207517     0.05800
C444        C  0.33192786  0.95856216  0.88713828    -0.06500
C445        C  0.31847759  0.96887757  0.92428990    -0.07200
C446        C  0.28689263  0.95032520  0.93808553    -0.01800
C447        C  0.26867426  0.92086395  0.91359315     0.05000
N448        N  0.23613847  0.90138498  0.92426073     0.67500
H449        H  0.26725058  0.88837542  0.85747430     0.16400
H450        H  0.33291877  0.99146765  0.94267608     0.16100
N451        N  0.36398815  0.97867243  0.87418883     0.75200
O452        O  0.21657760  0.90471573  0.89840790    -0.38200
O453        O  0.22687452  0.87692399  0.95050170    -0.38200
O454        O  0.37144735  0.00132445  0.84429215    -0.38900
O455        O  0.38481000  0.97836202  0.90143550    -0.38900
C456        C  0.34931540  0.97102957  0.59484571    -0.11200
C457        C  0.37069544  0.96264218  0.61280312     0.05800
C458        C  0.40038803  0.97631719  0.58963527    -0.06500
C459        C  0.40778450  0.99710718  0.54872857    -0.07200
C460        C  0.38642120  0.00533340  0.53037795    -0.01800
C461        C  0.35705734  0.99249661  0.55449773     0.05000
N462        N  0.33434412  0.99987023  0.53718194     0.67500
H463        H  0.32646668  0.96090986  0.61225813     0.16400
H464        H  0.43050781  0.00679365  0.53096765     0.16100
N465        N  0.42283648  0.96817294  0.60528657     0.75200
O466        O  0.31254111  0.98092338  0.50782236    -0.38200
O467        O  0.33217384  0.02128485  0.55965644    -0.38200
O468        O  0.42364625  0.94607271  0.58251128    -0.38900
O469        O  0.44560933  0.98696137  0.63320715    -0.38900
C470        C  0.33398504  0.04487841  0.26266441    -0.11200
C471        C  0.34775792  0.02736414  0.27684086     0.05800
C472        C  0.33933517  0.99947152  0.24921872    -0.06500
C473        C  0.31807563  0.99012931  0.20791599    -0.07200
C474        C  0.30529789  0.00836461  0.19280134    -0.01800
C475        C  0.31310165  0.03576137  0.22115771     0.05000
N476        N  0.29914627  0.05403596  0.20959947     0.67500
H477        H  0.33975338  0.06614092  0.28348556     0.16400
H478        H  0.31213973  0.96892125  0.18677780     0.16100
N479        N  0.35168924  0.98007944  0.26287784     0.75200
O480        O  0.27337303  0.04693962  0.22987997    -0.38200
O481        O  0.31551431  0.08069541  0.18970338    -0.38200
O482        O  0.33626384  0.95716660  0.29236059    -0.38900
O483        O  0.37363161  0.98134430  0.23674866    -0.38900
C484        C  0.92137823  0.07999260  0.02311049    -0.11200
C485        C  0.92309427  0.06634957  0.97688356     0.05800
C486        C  0.92432261  0.08108239  0.93009050    -0.06500
C487        C  0.92989313  0.11172573  0.93072068    -0.07200
C488        C  0.93418271  0.12771368  0.97757334    -0.01800
C489        C  0.92680531  0.11058116  0.02385466     0.05000
N490        N  0.92800332  0.12489048  0.07235378     0.67500
H491        H  0.92000038  0.06858530  0.05921841     0.16400
H492        H  0.93484595  0.12419511  0.89468601     0.16100
N493        N  0.92597341  0.06759297  0.88229317     0.75200
O494        O  0.90308797  0.12139302  0.09116302    -0.38200
O495        O  0.95149946  0.13386128  0.10123074    -0.38200
O496        O  0.90157304  0.04497541  0.86282591    -0.38900
O497        O  0.95218472  0.07598339  0.86247072    -0.38900
C498        C  0.56849326  0.13143485  0.41062630    -0.11200
C499        C  0.57853498  0.15064971  0.36726379     0.05800
C500        C  0.55930339  0.14122058  0.32310895    -0.06500
C501        C  0.52876772  0.11555760  0.32565792    -0.07200
C502        C  0.51683824  0.09964088  0.37218480    -0.01800
C503        C  0.53785404  0.10598101  0.41349522     0.05000
N504        N  0.52779058  0.08879084  0.46036295     0.67500
H505        H  0.58322250  0.13833552  0.44461020     0.16400
H506        H  0.51334411  0.11078754  0.29309448     0.16100
N507        N  0.56882852  0.16008128  0.27795506     0.75200
O508        O  0.53171407  0.06584134  0.46662411    -0.38200
O509        O  0.52246609  0.10084820  0.49901579    -0.38200
O510        O  0.57742111  0.15116181  0.23903120    -0.38900
O511        O  0.56233160  0.18141512  0.27321925    -0.38900
C512        C  0.76156395  0.23664134  0.25586720    -0.11200
C513        C  0.74865521  0.23209063  0.30523618     0.05800
C514        C  0.76493944  0.22864177  0.34667681    -0.06500
C515        C  0.79602434  0.23626987  0.34017102    -0.07200
C516        C  0.81113326  0.24725164  0.29272679    -0.01800
C517        C  0.79265532  0.24439612  0.24923656     0.05000
N518        N  0.80573305  0.25212095  0.19883588     0.67500
H519        H  0.74904647  0.23863761  0.22338979     0.16400
H520        H  0.80927918  0.23713024  0.37383519     0.16100
N521        N  0.75215021  0.22251490  0.39732918     0.75200
O522        O  0.80440495  0.23075070  0.17044903    -0.38200
O523        O  0.81132231  0.27755994  0.17881910    -0.38200
O524        O  0.74244063  0.19590514  0.41679130    -0.38900
O525        O  0.75608032  0.24497369  0.42573847    -0.38900
C526        C  0.49469513  0.22152273  0.37687141    -0.11200
C527        C  0.51117750  0.23274725  0.42337315     0.05800
C528        C  0.49843690  0.21439625  0.46798568    -0.06500
C529        C  0.47284439  0.18370294  0.46363595    -0.07200
C530        C  0.45968931  0.17064068  0.41538179    -0.01800
C531        C  0.46935551  0.19075993  0.37232403     0.05000
N532        N  0.45572983  0.17968559  0.32260438     0.67500
H533        H  0.50389463  0.23524419  0.34221327     0.16400
H534        H  0.46532083  0.16915684  0.49761095     0.16100
N535        N  0.51303828  0.22540665  0.51716449     0.75200
O536        O  0.43456392  0.18466052  0.30753040    -0.38200
O537        O  0.46995702  0.17269215  0.28992659    -0.38200
O538        O  0.50200439  0.23700894  0.54793545    -0.38900
O539        O  0.53047426  0.21599521  0.53455585    -0.38900
C540        C  0.84226458  0.39368414  0.26887052    -0.11200
C541        C  0.82991092  0.39262380  0.31774597     0.05800
C542        C  0.84685477  0.39323940  0.36147277    -0.06500
C543        C  0.87231595  0.38888356  0.35577455    -0.07200
C544        C  0.88107495  0.38384724  0.30682392    -0.01800
C545        C  0.86775885  0.38931288  0.26294377     0.05000
N546        N  0.87683108  0.38631756  0.21208774     0.67500
H547        H  0.82957476  0.39359252  0.23490968     0.16400
H548        H  0.88305524  0.38614690  0.39005755     0.16100
N549        N  0.83626584  0.39463735  0.41192483     0.75200
O550        O  0.86231345  0.36019685  0.18908833    -0.38200
O551        O  0.89398845  0.41071191  0.18658059    -0.38200
O552        O  0.82332519  0.37033020  0.43919417    -0.38900
O553        O  0.84533412  0.42100445  0.43257878    -0.38900
C554        C  0.46299828  0.56455783  0.59839414    -0.11200
C555        C  0.47892698  0.57551552  0.64576306     0.05800
C556        C  0.46172971  0.57541283  0.68922530    -0.06500
C557        C  0.43136795  0.56983435  0.68271985    -0.07200
C558        C  0.41771634  0.56406145  0.63377681    -0.01800
C559        C  0.43240830  0.55851552  0.59241843     0.05000
N560        N  0.41789867  0.55054676  0.54276784     0.67500
H561        H  0.47518510  0.56343433  0.56471793     0.16400
H562        H  0.41998878  0.57386011  0.71487712     0.16100
N563        N  0.47585837  0.58485133  0.73895325     0.75200
O564        O  0.42451423  0.57178221  0.51025253    -0.38200
O565        O  0.39496767  0.52336137  0.53461339    -0.38200
O566        O  0.48422900  0.61200523  0.75546176    -0.38900
O567        O  0.47281750  0.56418194  0.77028561    -0.38900
C568        C  0.53116196  0.71049379  0.67711190    -0.11200
C569        C  0.54555231  0.70828019  0.63199932     0.05800
C570        C  0.53748260  0.71631106  0.58465667    -0.06500
C571        C  0.51216409  0.72124928  0.58230664    -0.07200
C572        C  0.49490091  0.71861972  0.62647434    -0.01800
C573        C  0.50588971  0.71537453  0.67468556     0.05000
N574        N  0.48844506  0.71167921  0.72044819     0.67500
H575        H  0.53714728  0.70496206  0.71407155     0.16400
H576        H  0.50392365  0.72380427  0.54509942     0.16100
N577        N  0.55250619  0.71643880  0.53783311     0.75200
O578        O  0.46584518  0.68507730  0.73222632    -0.38200
O579        O  0.49485974  0.73522713  0.74808330    -0.38200
O580        O  0.53926867  0.69314201  0.50773353    -0.38900
O581        O  0.57470280  0.74202307  0.52143786    -0.38900
C582        C  0.82692983  0.87826552  0.90466545    -0.11200
C583        C  0.84173398  0.89352689  0.95060427     0.05800
C584        C  0.82777876  0.87966135  0.99773232    -0.06500
C585        C  0.80228049  0.84889359  0.99828997    -0.07200
C586        C  0.79094692  0.83147900  0.95236202    -0.01800
C587        C  0.80167147  0.84739982  0.90503323     0.05000
N588        N  0.78938799  0.83178301  0.85688151     0.67500
H589        H  0.83735202  0.88887204  0.86820618     0.16400
H590        H  0.79408169  0.83750800  0.03505499     0.16100
N591        N  0.84199483  0.89474373  0.04539007     0.75200
O592        O  0.76839952  0.83462904  0.83482118    -0.38200
O593        O  0.80454202  0.82237628  0.83111773    -0.38200
O594        O  0.82989106  0.90717997  0.07181017    -0.38900
O595        O  0.86249593  0.89032330  0.06548416    -0.38900
C596        C  0.70352127  0.69986352  0.79239917    -0.11200
C597        C  0.69343135  0.68767891  0.84170527     0.05800
C598        C  0.66169215  0.66512352  0.84923092    -0.06500
C599        C  0.64063410  0.65563927  0.80782734    -0.07200
C600        C  0.65040491  0.66887836  0.75884328    -0.01800
C601        C  0.68237807  0.69108898  0.75130222     0.05000
N602        N  0.69390880  0.70521698  0.70240448     0.67500
H603        H  0.72780315  0.71733755  0.78612787     0.16400
H604        H  0.61632646  0.63844049  0.81449028     0.16100
N605        N  0.65053664  0.65117764  0.89837238     0.75200
O606        O  0.69856393  0.73232033  0.69439100    -0.38200
O607        O  0.70668149  0.69453455  0.67346732    -0.38200
O608        O  0.63527434  0.65979340  0.92563460    -0.38900
O609        O  0.64959669  0.62591801  0.90876569    -0.38900
C610        C  0.59735274  0.44399359  0.35670496    -0.11200
C611        C  0.59935933  0.45784488  0.30873088     0.05800
C612        C  0.58992355  0.43846699  0.26442516    -0.06500
C613        C  0.58404665  0.40762719  0.26789291    -0.07200
C614        C  0.58746452  0.39569518  0.31492467    -0.01800
C615        C  0.59204457  0.41347703  0.36014181     0.05000
N616        N  0.59708207  0.40333611  0.40866025     0.67500
H617        H  0.60383188  0.45813848  0.39147734     0.16400
H618        H  0.58043318  0.39428127  0.23278941     0.16100
N619        N  0.58975995  0.45076395  0.21493863     0.75200
O620        O  0.62395152  0.40837725  0.41976623    -0.38200
O621        O  0.57737979  0.39652505  0.44405804    -0.38200
O622        O  0.61116025  0.45653367  0.18319970    -0.38900
O623        O  0.56932799  0.45771337  0.20412338    -0.38900
C624        C  0.73638021  0.51492530  0.24874039    -0.11200
C625        C  0.73253071  0.52522770  0.29731013     0.05800
C626        C  0.73879476  0.51300483  0.34179230    -0.06500
C627        C  0.74323133  0.48738432  0.33705736    -0.07200
C628        C  0.74177199  0.47405093  0.28873927    -0.01800
C629        C  0.74091861  0.48945264  0.24423117     0.05000
N630        N  0.73943702  0.47621338  0.19451931     0.67500
H631        H  0.73254316  0.52440556  0.21393005     0.16400
H632        H  0.74392132  0.47554438  0.37147584     0.16100
N633        N  0.73688664  0.52351032  0.39219034     0.75200
O634        O  0.71358439  0.46120814  0.17121201    -0.38200
O635        O  0.76274907  0.47539925  0.17760351    -0.38200
O636        O  0.71258733  0.50738537  0.41847452    -0.38900
O637        O  0.76163587  0.54377597  0.41448157    -0.38900
C638        C  0.73059398  0.67949589  0.14276924    -0.11200
C639        C  0.71967766  0.66832214  0.09288980     0.05800
C640        C  0.69716473  0.63638347  0.08564594    -0.06500
C641        C  0.68618966  0.61624101  0.12787885    -0.07200
C642        C  0.69776980  0.62707850  0.17772541    -0.01800
C643        C  0.72029476  0.65920191  0.18493213     0.05000
N644        N  0.73325450  0.67169341  0.23452356     0.67500
H645        H  0.74803276  0.70392099  0.14885990     0.16400
H646        H  0.66892651  0.59181848  0.12132148     0.16100
N647        N  0.68450762  0.62413844  0.03584211     0.75200
O648        O  0.75904413  0.67450272  0.24715371    -0.38200
O649        O  0.72303966  0.68632870  0.25985357    -0.38200
O650        O  0.69314995  0.60761467  0.01213715    -0.38900
O651        O  0.66011653  0.62372345  0.02134656    -0.38900
C652        C  0.65078237  0.59969064  0.47275277    -0.11200
C653        C  0.63948333  0.59952937  0.42318614     0.05800
C654        C  0.61808597  0.60999811  0.41676440    -0.06500
C655        C  0.60806866  0.61969810  0.45973137    -0.07200
C656        C  0.61858749  0.61874374  0.50943436    -0.01800
C657        C  0.64042263  0.60892513  0.51566510     0.05000
N658        N  0.65313233  0.60909531  0.56504644     0.67500
H659        H  0.66725005  0.59188836  0.47857933     0.16400
H660        H  0.59152765  0.62744779  0.45427855     0.16100
N661        N  0.60672957  0.61155316  0.36700536     0.75200
O662        O  0.64009907  0.58464687  0.59196396    -0.38200
O663        O  0.68072488  0.63029736  0.57575198    -0.38200
O664        O  0.57888737  0.59188603  0.35461671    -0.38900
O665        O  0.62185544  0.63611196  0.34080421    -0.38900
C666        C  0.09474360  0.90736602  0.03191197    -0.11200
C667        C  0.08418146  0.91141620  0.07971124     0.05800
C668        C  0.10234644  0.91540024  0.12397915    -0.06500
C669        C  0.13229285  0.91966273  0.11874656    -0.07200
C670        C  0.14477817  0.92068013  0.06985600    -0.01800
C671        C  0.12478265  0.91208074  0.02648634     0.05000
N672        N  0.13545535  0.91100258  0.97591995     0.67500
H673        H  0.08111001  0.90420180  0.99749315     0.16400
H674        H  0.14687232  0.92541590  0.15273411     0.16100
N675        N  0.09194047  0.91802630  0.17396248     0.75200
O676        O  0.13032406  0.88511140  0.95794394    -0.38200
O677        O  0.14257789  0.93340621  0.94559906    -0.38200
O678        O  0.07845014  0.89397523  0.20173067    -0.38900
O679        O  0.10328347  0.94470548  0.19481445    -0.38900
C680        C  0.87802222  0.77862509  0.01374844    -0.11200
C681        C  0.86172983  0.76769157  0.96688166     0.05800
C682        C  0.87841016  0.77974731  0.92068823    -0.06500
C683        C  0.90891655  0.80575278  0.92240250    -0.07200
C684        C  0.92313133  0.82022283  0.96951716    -0.01800
C685        C  0.90849426  0.80460858  0.01546421     0.05000
N686        N  0.92224015  0.81733788  0.06455292     0.67500
H687        H  0.86594820  0.76915807  0.04966649     0.16400
H688        H  0.91992830  0.81711221  0.88668049     0.16100
N689        N  0.86323851  0.76910207  0.87186380     0.75200
O690        O  0.91624088  0.83626940  0.08697925    -0.38200
O691        O  0.93458653  0.80475772  0.08972167    -0.38200
O692        O  0.85280332  0.78426800  0.84905175    -0.38900
O693        O  0.85770394  0.74308237  0.85382987    -0.38900
loop_ 
_geom_bond_atom_site_label_1 
_geom_bond_atom_site_label_2 
_geom_bond_distance 
_geom_bond_site_symmetry_2 
_ccdc_geom_bond_type 
C1            C2   1.406       .  A
C1            C6   1.418       .  A
C1          C128   1.524       .  S
C2            C3   1.412       .  A
C2           H21   1.082       .  S
C3            C4   1.423       .  A
C3          C684   1.496       .  S
C4            C5   1.412   1_556  A
C4           C11   1.409   1_556  A
C5            C6   1.420   1_554  A
C5           C10   1.429   1_655  A
C6            C7   1.385   1_556  A
C7            C8   1.369   1_655  A
C7           H17   1.079       .  S
C8            C9   1.385       .  A
C8           H18   1.082       .  S
C9           C10   1.423       .  A
C9           C16   1.421       .  A
C10          C13   1.407       .  A
C11          C12   1.408   1_655  A
C11          H19   1.083       .  S
C12          C13   1.411       .  A
C12          H20   1.083       .  S
C13          C14   1.420       .  A
C14          C15   1.412       .  A
C14         C667   1.488       .  S
C15          C16   1.409       .  A
C15          H22   1.081       .  S
C16         C228   1.529   1_565  S
O23          C26   1.271       .  A
O23         Cd28   2.463       .  S
C24         C611   1.494       .  S
C24          O33   1.264       .  A
C24          O29   1.271       .  A
O25          C31   1.269       .  A
O25         Cd28   2.510       .  S
C26         C642   1.487       .  S
C26          O34   1.267       .  A
C27         C653   1.482       .  S
C27          O32   1.270       .  A
C27          O30   1.267       .  A
Cd28         O35   2.419       .  S
Cd28         O34   2.461       .  S
Cd28         O33   2.431       .  S
Cd28         O29   2.521       .  S
Cd28         O32   2.443       .  S
Cd28         O30   2.464       .  S
C31         C625   1.487       .  S
C31          O35   1.264       .  A
O36          C39   1.269       .  A
O36         Cd41   2.461       .  S
C37         C681   1.490       .  S
C37          O46   1.263   1_556  A
C37          O42   1.268       .  A
O38          C44   1.269       .  A
O38         Cd41   2.495       .  S
C39         C597   1.477       .  S
C39          O47   1.267       .  A
C40         C639   1.479       .  S
C40          O45   1.268       .  A
C40          O43   1.267       .  A
Cd41         O48   2.457       .  S
Cd41         O47   2.462       .  S
Cd41         O46   2.453   1_556  S
Cd41         O42   2.508       .  S
Cd41         O45   2.468   1_556  S
Cd41         O43   2.462   1_556  S
C44         C586   1.488       .  S
C44          O48   1.262       .  A
O49          C52   1.268       .  A
O49         Cd54   2.465       .  S
C50         C569   1.490       .  S
C50          O59   1.264       .  A
C50          O55   1.267       .  A
O51          C57   1.266       .  A
O51         Cd54   2.502       .  S
C52         C656   1.479       .  S
C52          O60   1.267       .  A
C53         C600   1.486       .  S
C53          O58   1.268       .  A
C53          O56   1.267       .  A
Cd54         O61   2.471       .  S
Cd54         O60   2.463       .  S
Cd54         O59   2.448       .  S
Cd54         O55   2.499       .  S
Cd54         O58   2.471       .  S
Cd54         O56   2.478       .  S
C57         C555   1.492       .  S
C57          O61   1.264       .  A
C62          C63   1.401       .  A
C62          C67   1.405       .  A
C62         C628   1.475       .  S
C63          C64   1.407       .  A
C63          H82   1.082       .  S
C64          C65   1.431       .  A
C64          C86   1.529       .  S
C65          C66   1.418       .  A
C65          C72   1.410       .  A
C66          C67   1.412       .  A
C66          C71   1.413       .  A
C67          C68   1.406       .  A
C68          C69   1.398       .  A
C68          H78   1.083       .  S
C69          C70   1.405       .  A
C69          H79   1.083       .  S
C70          C71   1.416       .  A
C70          C77   1.409       .  A
C71          C74   1.417       .  A
C72          C73   1.407       .  A
C72          H80   1.084       .  S
C73          C74   1.410       .  A
C73          H81   1.082       .  S
C74          C75   1.420       .  A
C75          C76   1.401       .  A
C75         C106   1.494       .  S
C76          C77   1.402       .  A
C76          H83   1.085       .  S
C77         C541   1.480       .  S
C84          C85   1.411       .  A
C84          C89   1.426       .  A
C84         C614   1.493       .  S
C85          C86   1.406       .  A
C85         H104   1.082       .  S
C86          C87   1.419       .  A
C87          C88   1.422       .  A
C87          C94   1.382       .  A
C88          C89   1.411       .  A
C88          C93   1.431       .  A
C89          C90   1.411       .  A
C90          C91   1.413       .  A
C90         H100   1.082       .  S
C91          C92   1.413       .  A
C91         H101   1.083       .  S
C92          C93   1.411       .  A
C92          C99   1.427       .  A
C93          C96   1.422       .  A
C94          C95   1.370       .  A
C94         H102   1.079       .  S
C95          C96   1.388       .  A
C95         H103   1.066       .  S
C96          C97   1.419       .  A
C97          C98   1.406       .  A
C97         C121   1.526       .  S
C98          C99   1.412       .  A
C98         H105   1.082       .  S
C99         C527   1.493       .  S
C106        C107   1.397       .  A
C106        C111   1.415       .  A
C107        C108   1.403       .  A
C107        H126   1.085       .  S
C108        C109   1.416       .  A
C108        C513   1.486       .  S
C109        C110   1.417       .  A
C109        C116   1.406       .  A
C110        C111   1.416       .  A
C110        C115   1.414       .  A
C111        C112   1.407       .  A
C112        C113   1.404       .  A
C112        H122   1.083       .  S
C113        C114   1.410       .  A
C113        H123   1.083       .  S
C114        C115   1.420       .  A
C114        C121   1.428       .  A
C115        C118   1.413       .  A
C116        C117   1.406       .  A
C116        H124   1.083       .  S
C117        C118   1.410       .  A
C117        H125   1.083       .  S
C118        C119   1.412       .  A
C119        C120   1.403       .  A
C119        C499   1.480       .  S
C120        C121   1.406       .  A
C120        H127   1.084       .  S
C128        C129   1.406       .  A
C128        C133   1.429       .  A
C129        C130   1.400       .  A
C129        H148   1.082       .  S
C130        C131   1.410       .  A
C130        C583   1.479       .  S
C131        C132   1.415       .  A
C131        C138   1.406       .  A
C132        C133   1.417       .  A
C132        C137   1.414       .  A
C133        C134   1.411       .  A
C134        C135   1.405   1_565  A
C134        H144   1.084       .  S
C135        C136   1.408       .  A
C135        H145   1.082   1_655  S
C136        C137   1.420   1_545  A
C136        C143   1.421       .  A
C137        C140   1.414   1_565  A
C138        C139   1.401       .  A
C138        H146   1.083       .  S
C139        C140   1.407   1_565  A
C139        H147   1.083   1_565  S
C140        C141   1.409       .  A
C141        C142   1.402       .  A
C141        C485   1.476       .  S
C142        C143   1.399       .  A
C142        H149   1.085   1_556  S
C143        C243   1.499   1_655  S
O150        C153   1.269       .  A
O150       Cd155   2.523       .  S
C151        C530   1.494       .  S
C151        O160   1.263       .  A
C151        O156   1.268       .  A
O152        C158   1.269       .  A
O152       Cd155   2.489       .  S
C153        C460   1.486       .  S
C153        O161   1.265       .  A
C154        C471   1.489       .  S
C154        O159   1.267       .  A
C154        O157   1.266       .  A
Cd155       O162   2.457       .  S
Cd155       O161   2.440       .  S
Cd155       O160   2.481       .  S
Cd155       O156   2.506       .  S
Cd155       O159   2.511       .  S
Cd155       O157   2.455       .  S
C158        C502   1.486       .  S
C158        O162   1.263       .  A
O163        C166   1.268       .  A
O163       Cd168   2.487       .  S
C164        C429   1.491       .  S
C164        O173   1.265       .  A
C164        O169   1.268       .  A
O165        C171   1.270       .  A
O165       Cd168   2.529       .  S
C166        C457   1.487       .  S
C166        O174   1.266       .  A
C167        C443   1.496       .  S
C167        O172   1.270       .  A
C167        O170   1.265       .  A
Cd168       O175   2.455       .  S
Cd168       O174   2.474       .  S
Cd168       O173   2.457       .  S
Cd168       O169   2.504       .  S
Cd168       O172   2.549       .  S
Cd168       O170   2.456       .  S
C171        C418   1.497       .  S
C171        O175   1.264       .  A
O176        C179   1.268       .  A
O176       Cd181   2.495       .  S
C177        C670   1.486       .  S
C177        O186   1.263       .  A
C177        O182   1.268       .  A
O178        C184   1.269       .  A
O178       Cd181   2.505   1_545  S
C179        C474   1.483   1_565  S
C179        O187   1.266   1_565  A
C180        C446   1.494       .  S
C180        O185   1.269       .  A
C180        O183   1.264   1_556  A
Cd181       O188   2.469   1_565  S
Cd181       O187   2.470   1_565  S
Cd181       O186   2.450       .  S
Cd181       O182   2.488       .  S
Cd181       O185   2.520   1_554  S
Cd181       O183   2.480       .  S
C184        C401   1.490       .  S
C184        O188   1.263       .  A
O189        C192   1.269       .  A
O189       Cd194   2.480       .  S
C190        C516   1.494       .  S
C190        O199   1.265       .  A
C190        O195   1.270       .  A
O191        C197   1.268       .  A
O191       Cd194   2.493       .  S
C192        C373   1.485       .  S
C192        O200   1.265       .  A
C193        C387   1.477       .  S
C193        O198   1.268       .  A
C193        O196   1.266       .  A
Cd194       O201   2.425       .  S
Cd194       O200   2.462       .  S
Cd194       O199   2.473       .  S
Cd194       O195   2.501       .  S
Cd194       O198   2.490       .  S
Cd194       O196   2.403       .  S
C197        C544   1.484       .  S
C197        O201   1.264       .  A
O202        C205   1.269       .  A
O202       Cd207   2.472       .  S
C203        C345   1.487       .  S
C203        O212   1.262       .  A
C203        O208   1.269       .  A
O204        C210   1.268       .  A
O204       Cd207   2.499       .  S
C205        C359   1.481       .  S
C205        O213   1.268       .  A
C206        C376   1.479       .  S
C206        O211   1.269       .  A
C206        O209   1.266       .  A
Cd207       O214   2.443       .  S
Cd207       O213   2.431       .  S
Cd207       O212   2.452       .  S
Cd207       O208   2.485       .  S
Cd207       O211   2.464       .  S
Cd207       O209   2.457       .  S
C210        C331   1.487       .  S
C210        O214   1.263       .  A
O215        C218   1.267   1_655  A
O215       Cd220   2.490   1_655  S
C216        C488   1.481       .  S
C216        O225   1.264   1_556  A
C216        O221   1.269       .  A
O217        C223   1.267   1_554  A
O217       Cd220   2.522   1_554  S
C218        C362   1.484       .  S
C218        O226   1.266       .  A
C219        C390   1.477       .  S
C219        O224   1.269   1_655  A
C219        O222   1.265       .  A
Cd220       O227   2.435       .  S
Cd220       O226   2.439       .  S
Cd220       O225   2.440   1_456  S
Cd220       O221   2.486   1_455  S
Cd220       O224   2.485   1_556  S
Cd220       O222   2.422   1_456  S
C223        C317   1.490       .  S
C223        O227   1.263       .  A
C228        C229   1.407       .  A
C228        C233   1.429       .  A
C229        C230   1.403       .  A
C229        H248   1.083       .  S
C230        C231   1.413       .  A
C230        C404   1.484       .  S
C231        C232   1.415       .  A
C231        C238   1.409       .  A
C232        C233   1.419       .  A
C232        C237   1.415       .  A
C233        C234   1.411       .  A
C234        C235   1.406       .  A
C234        H244   1.085   1_545  S
C235        C236   1.408       .  A
C235        H245   1.082   1_455  S
C236        C237   1.416       .  A
C236        C243   1.418   1_554  A
C237        C240   1.415   1_554  A
C238        C239   1.405   1_554  A
C238        H246   1.083       .  S
C239        C240   1.407       .  A
C239        H247   1.083       .  S
C240        C241   1.415       .  A
C241        C242   1.405       .  A
C241        C320   1.485       .  S
C242        C243   1.402       .  A
C242        H249   1.084       .  S
C250        C251   1.402       .  A
C250        C255   1.411       .  A
C250        C432   1.481       .  S
C251        C252   1.406       .  A
C251        H270   1.083       .  S
C252        C253   1.426       .  A
C252        C285   1.523       .  S
C253        C254   1.416       .  A
C253        C260   1.410       .  A
C254        C255   1.414       .  A
C254        C259   1.414       .  A
C255        C256   1.407       .  A
C256        C257   1.403       .  A
C256        H266   1.083       .  S
C257        C258   1.408       .  A
C257        H267   1.083       .  S
C258        C259   1.415       .  A
C258        C265   1.412       .  A
C259        C262   1.420       .  A
C260        C261   1.404       .  A
C260        H268   1.082       .  S
C261        C262   1.407       .  A
C261        H269   1.083       .  S
C262        C263   1.418       .  A
C263        C264   1.399       .  A
C263        C309   1.500       .  S
C264        C265   1.404       .  A
C264        H271   1.085       .  S
C265        C348   1.480       .  S
C272        C273   1.409       .  A
C272        C277   1.415       .  A
C272        C572   1.482       .  S
C273        C274   1.408       .  A
C273        H292   1.082       .  S
C274        C275   1.423       .  A
C274        C294   1.529       .  S
C275        C276   1.423       .  A
C275        C282   1.383       .  A
C276        C277   1.406       .  A
C276        C281   1.427       .  A
C277        C278   1.410       .  A
C278        C279   1.407       .  A
C278        H288   1.082       .  S
C279        C280   1.409       .  A
C279        H289   1.084       .  S
C280        C281   1.410       .  A
C280        C287   1.418       .  A
C281        C284   1.420       .  A
C282        C283   1.372       .  A
C282        H290   1.087       .  S
C283        C284   1.389       .  A
C283        H291   1.062       .  S
C284        C285   1.420       .  A
C285        C286   1.405       .  A
C286        C287   1.408       .  A
C286        H293   1.083       .  S
C287        C415   1.485       .  S
C294        C295   1.409       .  A
C294        C299   1.429       .  A
C295        C296   1.403       .  A
C295        H314   1.082       .  S
C296        C297   1.407       .  A
C296        C558   1.480       .  S
C297        C298   1.414       .  A
C297        C304   1.407       .  A
C298        C299   1.416       .  A
C298        C303   1.412       .  A
C299        C300   1.411       .  A
C300        C301   1.407       .  A
C300        H310   1.085       .  S
C301        C302   1.408       .  A
C301        H311   1.082       .  S
C302        C303   1.418       .  A
C302        C309   1.421       .  A
C303        C306   1.412       .  A
C304        C305   1.399       .  A
C304        H312   1.083       .  S
C305        C306   1.405       .  A
C305        H313   1.083       .  S
C306        C307   1.405       .  A
C307        C308   1.404       .  A
C307        C334   1.476       .  S
C308        C309   1.403       .  A
C308        H315   1.085       .  S
C316        C317   1.407       .  A
C316        C321   1.399       .  A
C316        H323   1.084       .  S
C317        C318   1.413   1_556  A
C318        C319   1.405       .  A
C318        N325   1.429       .  S
C319        C320   1.404   1_554  A
C319        H324   1.084       .  S
C320        C321   1.409       .  A
C321        N322   1.429       .  S
N322        O326   1.262       .  A
N322        O327   1.261       .  A
N325        O329   1.262       .  A
N325        O328   1.262       .  A
C330        C331   1.411       .  A
C330        C335   1.401       .  A
C330        H337   1.083       .  S
C331        C332   1.415       .  A
C332        C333   1.400       .  A
C332        N339   1.429       .  S
C333        C334   1.400       .  A
C333        H338   1.084       .  S
C334        C335   1.402       .  A
C335        N336   1.430       .  S
N336        O340   1.262       .  A
N336        O341   1.262       .  A
N339        O343   1.262       .  A
N339        O342   1.262       .  A
C344        C345   1.405       .  A
C344        C349   1.401       .  A
C344        H351   1.082       .  S
C345        C346   1.417       .  A
C346        C347   1.400       .  A
C346        N353   1.429       .  S
C347        C348   1.401       .  A
C347        H352   1.083       .  S
C348        C349   1.409       .  A
C349        N350   1.429       .  S
N350        O354   1.262       .  A
N350        O355   1.262       .  A
N353        O357   1.262       .  A
N353        O356   1.262       .  A
C358        C359   1.404       .  A
C358        C363   1.401       .  A
C358        H365   1.084       .  S
C359        C360   1.411       .  A
C360        C361   1.400       .  A
C360        N367   1.429       .  S
C361        C362   1.405       .  A
C361        H366   1.084       .  S
C362        C363   1.413       .  A
C363        N364   1.429       .  S
N364        O368   1.262   1_455  A
N364        O369   1.262       .  A
N367        O371   1.262       .  A
N367        O370   1.262       .  A
C372        C373   1.405       .  A
C372        C377   1.402       .  A
C372        H379   1.083       .  S
C373        C374   1.414   1_655  A
C374        C375   1.400       .  A
C374        N381   1.429       .  S
C375        C376   1.402       .  A
C375        H380   1.083       .  S
C376        C377   1.412   1_455  A
C377        N378   1.429       .  S
N378        O382   1.262       .  A
N378        O383   1.262       .  A
N381        O385   1.262       .  A
N381        O384   1.262       .  A
C386        C387   1.401       .  A
C386        C391   1.393       .  A
C386        H393   1.083       .  S
C387        C388   1.413       .  A
C388        C389   1.406       .  A
C388        N395   1.429   1_655  S
C389        C390   1.406       .  A
C389        H394   1.083   1_655  S
C390        C391   1.410       .  A
C391        N392   1.429       .  S
N392        O396   1.262       .  A
N392        O397   1.262       .  A
N395        O399   1.262   1_455  A
N395        O398   1.262       .  A
C400        C401   1.405   1_556  A
C400        C405   1.403       .  A
C400        H407   1.083       .  S
C401        C402   1.416       .  A
C402        C403   1.404       .  A
C402        N409   1.429       .  S
C403        C404   1.401       .  A
C403        H408   1.083       .  S
C404        C405   1.410   1_554  A
C405        N406   1.429       .  S
N406        O410   1.262       .  A
N406        O411   1.262       .  A
N409        O413   1.262       .  A
N409        O412   1.262       .  A
C414        C415   1.403       .  A
C414        C419   1.404       .  A
C414        H421   1.084       .  S
C415        C416   1.409       .  A
C416        C417   1.403       .  A
C416        N423   1.431       .  S
C417        C418   1.411       .  A
C417        H422   1.084       .  S
C418        C419   1.415       .  A
C419        N420   1.427       .  S
N420        O424   1.262       .  A
N420        O425   1.262       .  A
N423        O427   1.262       .  A
N423        O426   1.262       .  A
C428        C429   1.408       .  A
C428        C433   1.402       .  A
C428        H435   1.084       .  S
C429        C430   1.416       .  A
C430        C431   1.404       .  A
C430        N437   1.428       .  S
C431        C432   1.402       .  A
C431        H436   1.084       .  S
C432        C433   1.405       .  A
C433        N434   1.430       .  S
N434        O438   1.262       .  A
N434        O439   1.262       .  A
N437        O441   1.262       .  A
N437        O440   1.262       .  A
C442        C443   1.406       .  A
C442        C447   1.403       .  A
C442        H449   1.083       .  S
C443        C444   1.415       .  A
C444        C445   1.410       .  A
C444        N451   1.428       .  S
C445        C446   1.407       .  A
C445        H450   1.083       .  S
C446        C447   1.414       .  A
C447        N448   1.429       .  S
N448        O452   1.262       .  A
N448        O453   1.262       .  A
N451        O455   1.262       .  A
N451        O454   1.262   1_565  A
C456        C457   1.407       .  A
C456        C461   1.407       .  A
C456        H463   1.083       .  S
C457        C458   1.412       .  A
C458        C459   1.400       .  A
C458        N465   1.429       .  S
C459        C460   1.404   1_565  A
C459        H464   1.084   1_565  S
C460        C461   1.412   1_545  A
C461        N462   1.428       .  S
N462        O466   1.262       .  A
N462        O467   1.262   1_565  A
N465        O469   1.262       .  A
N465        O468   1.262       .  A
C470        C471   1.405       .  A
C470        C475   1.400       .  A
C470        H477   1.083       .  S
C471        C472   1.415   1_545  A
C472        C473   1.407       .  A
C472        N479   1.428       .  S
C473        C474   1.404   1_565  A
C473        H478   1.082       .  S
C474        C475   1.411       .  A
C475        N476   1.429       .  S
N476        O480   1.262       .  A
N476        O481   1.262       .  A
N479        O483   1.262       .  A
N479        O482   1.262       .  A
C484        C485   1.399   1_554  A
C484        C489   1.400       .  A
C484        H491   1.083       .  S
C485        C486   1.409       .  A
C486        C487   1.400       .  A
C486        N493   1.430       .  S
C487        C488   1.404       .  A
C487        H492   1.083       .  S
C488        C489   1.415   1_556  A
C489        N490   1.429       .  S
N490        O494   1.262       .  A
N490        O495   1.262       .  A
N493        O497   1.262       .  A
N493        O496   1.262       .  A
C498        C499   1.400       .  A
C498        C503   1.401       .  A
C498        H505   1.083       .  S
C499        C500   1.409       .  A
C500        C501   1.401       .  A
C500        N507   1.429       .  S
C501        C502   1.405       .  A
C501        H506   1.083       .  S
C502        C503   1.416       .  A
C503        N504   1.429       .  S
N504        O508   1.262       .  A
N504        O509   1.262       .  A
N507        O511   1.262       .  A
N507        O510   1.262       .  A
C512        C513   1.403       .  A
C512        C517   1.403       .  A
C512        H519   1.084       .  S
C513        C514   1.411       .  A
C514        C515   1.404       .  A
C514        N521   1.429       .  S
C515        C516   1.406       .  A
C515        H520   1.083       .  S
C516        C517   1.417       .  A
C517        N518   1.429       .  S
N518        O522   1.262       .  A
N518        O523   1.262       .  A
N521        O525   1.262       .  A
N521        O524   1.262       .  A
C526        C527   1.403       .  A
C526        C531   1.403       .  A
C526        H533   1.084       .  S
C527        C528   1.415       .  A
C528        C529   1.405       .  A
C528        N535   1.430       .  S
C529        C530   1.406       .  A
C529        H534   1.084       .  S
C530        C531   1.417       .  A
C531        N532   1.429       .  S
N532        O536   1.262       .  A
N532        O537   1.262       .  A
N535        O539   1.262       .  A
N535        O538   1.262       .  A
C540        C541   1.402       .  A
C540        C545   1.402       .  A
C540        H547   1.084       .  S
C541        C542   1.406       .  A
C542        C543   1.399       .  A
C542        N549   1.429       .  S
C543        C544   1.407       .  A
C543        H548   1.083       .  S
C544        C545   1.414       .  A
C545        N546   1.429       .  S
N546        O550   1.262       .  A
N546        O551   1.262       .  A
N549        O553   1.262       .  A
N549        O552   1.262       .  A
C554        C555   1.411       .  A
C554        C559   1.403       .  A
C554        H561   1.083       .  S
C555        C556   1.417       .  A
C556        C557   1.401       .  A
C556        N563   1.428       .  S
C557        C558   1.399       .  A
C557        H562   1.084       .  S
C558        C559   1.404       .  A
C559        N560   1.430       .  S
N560        O564   1.262       .  A
N560        O565   1.262       .  A
N563        O567   1.262       .  A
N563        O566   1.262       .  A
C568        C569   1.408       .  A
C568        C573   1.399       .  A
C568        H575   1.083       .  S
C569        C570   1.416       .  A
C570        C571   1.403       .  A
C570        N577   1.428       .  S
C571        C572   1.402       .  A
C571        H576   1.083       .  S
C572        C573   1.410       .  A
C573        N574   1.431       .  S
N574        O578   1.262       .  A
N574        O579   1.262       .  A
N577        O581   1.262       .  A
N577        O580   1.262       .  A
C582        C583   1.400       .  A
C582        C587   1.401       .  A
C582        H589   1.083       .  S
C583        C584   1.408       .  A
C584        C585   1.402       .  A
C584        N591   1.429   1_556  S
C585        C586   1.406       .  A
C585        H590   1.083   1_556  S
C586        C587   1.417       .  A
C587        N588   1.429       .  S
N588        O592   1.262       .  A
N588        O593   1.262       .  A
N591        O595   1.262       .  A
N591        O594   1.262       .  A
C596        C597   1.401       .  A
C596        C601   1.401       .  A
C596        H603   1.083       .  S
C597        C598   1.410       .  A
C598        C599   1.402       .  A
C598        N605   1.428       .  S
C599        C600   1.406       .  A
C599        H604   1.083       .  S
C600        C601   1.415       .  A
C601        N602   1.428       .  S
N602        O606   1.262       .  A
N602        O607   1.262       .  A
N605        O609   1.262       .  A
N605        O608   1.262       .  A
C610        C611   1.407       .  A
C610        C615   1.402       .  A
C610        H617   1.083       .  S
C611        C612   1.412       .  A
C612        C613   1.408       .  A
C612        N619   1.429       .  S
C613        C614   1.409       .  A
C613        H618   1.083       .  S
C614        C615   1.412       .  A
C615        N616   1.430       .  S
N616        O620   1.262       .  A
N616        O621   1.262       .  A
N619        O623   1.262       .  A
N619        O622   1.262       .  A
C624        C625   1.409       .  A
C624        C629   1.398       .  A
C624        H631   1.083       .  S
C625        C626   1.416       .  A
C626        C627   1.402       .  A
C626        N633   1.428       .  S
C627        C628   1.400       .  A
C627        H632   1.084       .  S
C628        C629   1.403       .  A
C629        N630   1.430       .  S
N630        O634   1.262       .  A
N630        O635   1.262       .  A
N633        O637   1.262       .  A
N633        O636   1.262       .  A
C638        C639   1.402       .  A
C638        C643   1.403       .  A
C638        H645   1.082       .  S
C639        C640   1.410       .  A
C640        C641   1.401       .  A
C640        N647   1.428       .  S
C641        C642   1.405       .  A
C641        H646   1.082       .  S
C642        C643   1.416       .  A
C643        N644   1.429       .  S
N644        O648   1.262       .  A
N644        O649   1.262       .  A
N647        O651   1.262       .  A
N647        O650   1.262       .  A
C652        C653   1.404       .  A
C652        C657   1.399       .  A
C652        H659   1.082       .  S
C653        C654   1.414       .  A
C654        C655   1.403       .  A
C654        N661   1.429       .  S
C655        C656   1.404       .  A
C655        H660   1.082       .  S
C656        C657   1.410       .  A
C657        N658   1.429       .  S
N658        O662   1.262       .  A
N658        O663   1.262       .  A
N661        O665   1.262       .  A
N661        O664   1.262       .  A
C666        C667   1.403       .  A
C666        C671   1.399       .  A
C666        H673   1.084   1_554  S
C667        C668   1.412       .  A
C668        C669   1.402       .  A
C668        N675   1.429       .  S
C669        C670   1.405       .  A
C669        H674   1.083       .  S
C670        C671   1.415       .  A
C671        N672   1.429   1_554  S
N672        O676   1.262       .  A
N672        O677   1.262       .  A
N675        O679   1.262       .  A
N675        O678   1.262       .  A
C680        C681   1.406   1_554  A
C680        C685   1.403       .  A
C680        H687   1.083       .  S
C681        C682   1.412       .  A
C682        C683   1.405       .  A
C682        N689   1.429       .  S
C683        C684   1.409       .  A
C683        H688   1.083       .  S
C684        C685   1.413   1_556  A
C685        N686   1.429       .  S
N686        O690   1.262       .  A
N686        O691   1.262       .  A
N689        O693   1.262       .  A
N689        O692   1.262       .  A
