geometry optimzed in LAMMPS
_audit_creation_date              2020-11-30 
_audit_creation_method            'lammps2cif' 
_symmetry_space_group_name_H-M    'P1' 
_symmetry_Int_Tables_number       1 
_symmetry_cell_setting            triclinic 
loop_ 
_symmetry_equiv_pos_as_xyz 
  x,y,z 
_cell_length_a                    46.56231031311832 
_cell_length_b                    35.07937389923447 
_cell_length_c                    33.78690682839626 
_cell_angle_alpha                 90.46748389484289 
_cell_angle_beta                  90.42846109215496 
_cell_angle_gamma                 90.54573170041822 
loop_ 
_atom_site_label 
_atom_site_type_symbol 
_atom_site_fract_x 
_atom_site_fract_y 
_atom_site_fract_z 
_atom_site_charge 
In1        In  0.08137084  0.24887874  0.13608606     1.36870
C2          C  0.08909239  0.31441235  0.09796546     0.77780
O3          O  0.03851150  0.25032258  0.10764906    -0.60660
O4          O  0.03961376  0.24782721  0.17056563    -0.51570
C5          C  0.08965618  0.18103129  0.10280765     0.70450
O6          O  0.10051984  0.21142558  0.08997209    -0.46430
C7          C  0.12181890  0.25029944  0.19232956     0.75150
O8          O  0.09354429  0.28204188  0.08297820    -0.58290
O9          O  0.09544049  0.25221955  0.20040013    -0.48380
O10         O  0.08067397  0.31342497  0.13336922    -0.54720
C11         C  0.02451932  0.24911178  0.13934211     0.85330
O12         O  0.07463953  0.18484176  0.13347892    -0.56620
O13         O  0.12724147  0.24794642  0.15605275    -0.59910
In14       In  0.18653607  0.24956074  0.27614481     1.36870
C15         C  0.17781622  0.18209173  0.30944012     0.77780
O16         O  0.13984095  0.25275312  0.25891473    -0.60660
O17         O  0.17089161  0.24791180  0.21330870    -0.51570
C18         C  0.18032203  0.31622860  0.31289702     0.70450
O19         O  0.17491263  0.28467573  0.32883143    -0.46430
C20         C  0.24337587  0.24855903  0.26787785     0.75150
O21         O  0.17858997  0.21293758  0.32870881    -0.58290
O22         O  0.22699252  0.25237570  0.23828971    -0.48380
O23         O  0.18133410  0.18547329  0.27264502    -0.54720
C24         C  0.14470289  0.25043131  0.22233115     0.85330
O25         O  0.18798943  0.31398774  0.27723101    -0.56620
O26         O  0.23068151  0.24503376  0.30029421    -0.59910
In27       In  0.08288253  0.74815605  0.27350477     1.36870
C28         C  0.08709042  0.81397356  0.31303213     0.77780
O29         O  0.12840374  0.75445285  0.25354013    -0.60660
O30         O  0.09637957  0.74556461  0.20939141    -0.51570
C31         C  0.09446800  0.68172667  0.30717272     0.70450
O32         O  0.10454958  0.71319458  0.31912189    -0.46430
C33         C  0.02614094  0.74695628  0.26796769     0.75150
O34         O  0.09217658  0.78201313  0.32802090    -0.58290
O35         O  0.04154138  0.74942498  0.23743076    -0.48380
O36         O  0.08067041  0.81261548  0.27666022    -0.54720
C37         C  0.12269086  0.75035478  0.21735329     0.85330
O38         O  0.07816717  0.68382603  0.27729819    -0.56620
O39         O  0.03978136  0.74459821  0.30012216    -0.59910
In40       In  0.18613561  0.75101976  0.13293833     1.36870
C41         C  0.17975163  0.68291466  0.09912492     0.77780
O42         O  0.22962711  0.75128162  0.10739744    -0.60660
O43         O  0.22718505  0.75106408  0.17013418    -0.51570
C44         C  0.17975495  0.81784269  0.09754513     0.70450
O45         O  0.17534347  0.78641383  0.08018696    -0.46430
C46         C  0.14514372  0.75082647  0.18724523     0.75150
O47         O  0.17235887  0.71335956  0.08251422    -0.58290
O48         O  0.17145741  0.75396691  0.19597893    -0.48380
O49         O  0.18927129  0.68693932  0.13396885    -0.54720
C50         C  0.24293505  0.75107548  0.13987485     0.85330
O51         O  0.18655655  0.81538014  0.13360951    -0.56620
O52         O  0.13973710  0.74788430  0.15077312    -0.59910
In53       In  0.13405083  0.99974522  0.45406582     1.36870
C54         C  0.11242163  0.94844637  0.40485496     0.77780
O55         O  0.12732780  0.04111397  0.40543508    -0.60660
O56         O  0.17023975  0.03069749  0.42443740    -0.51570
C57         C  0.11755220  0.05069620  0.00726755     0.70450
O58         O  0.09945902  0.03059776  0.48784617    -0.46430
C59         C  0.15354648  0.94994155  0.00585986     0.75150
O60         O  0.09639871  0.96943151  0.42575708    -0.58290
O61         O  0.17029040  0.96768072  0.48281789    -0.48380
O62         O  0.13906383  0.95455527  0.40857353    -0.54720
C63         C  0.15370124  0.04905771  0.40175022     0.85330
O64         O  0.14336755  0.04489102  0.99823370    -0.56620
O65         O  0.12733743  0.95784341  0.00175643    -0.59910
In66       In  0.13393737  0.49893833  0.45655021     1.36870
C67         C  0.11222650  0.44643926  0.00309325     0.77780
O68         O  0.12751834  0.45807389  0.40672427    -0.60660
O69         O  0.17013392  0.46668686  0.42895359    -0.51570
C70         C  0.11796624  0.55208769  0.40593895     0.70450
O71         O  0.09968369  0.53125762  0.42335807    -0.46430
C72         C  0.15431643  0.54710254  0.01050530     0.75150
O73         O  0.09615198  0.46935845  0.48462763    -0.58290
O74         O  0.17064763  0.52903438  0.48729356    -0.48380
O75         O  0.13885426  0.45160382  0.99877380    -0.54720
C76         C  0.15369960  0.44944187  0.40453463     0.85330
O77         O  0.14375573  0.54469518  0.41432709    -0.56620
O78         O  0.12788256  0.53942912  0.00664072    -0.59910
In79       In  0.43617566  0.24885415  0.13090615     1.36870
C80         C  0.43078215  0.31634719  0.09662882     0.77780
O81         O  0.38946091  0.24690763  0.14792173    -0.60660
O82         O  0.42094515  0.25114985  0.19374086    -0.51570
C83         C  0.42823319  0.18121510  0.09671530     0.70450
O84         O  0.42215329  0.21203115  0.07983299    -0.46430
C85         C  0.49310059  0.24908392  0.13833411     0.75150
O86         O  0.43026930  0.28534212  0.07758050    -0.58290
O87         O  0.47717468  0.24760050  0.16838691    -0.48380
O88         O  0.43306418  0.31296861  0.13364850    -0.54720
C89         C  0.39461312  0.24904711  0.18458155     0.85330
O90         O  0.43740715  0.18471525  0.13177618    -0.56620
O91         O  0.47991979  0.25045800  0.10587596    -0.59910
In92       In  0.33175174  0.24964276  0.27043441     1.36870
C93         C  0.33668708  0.31659579  0.30794501     0.77780
O94         O  0.37752958  0.25267458  0.25083307    -0.60660
O95         O  0.34544560  0.24586296  0.20629459    -0.51570
C96         C  0.34241726  0.18426101  0.30688676     0.70450
O97         O  0.35344455  0.21586127  0.31689204    -0.46430
C98         C  0.27479041  0.24858180  0.26655964     0.75150
O99         O  0.33767857  0.28485111  0.32492534    -0.58290
O100        O  0.28962785  0.25185851  0.23552837    -0.48380
O101        O  0.33366791  0.31422156  0.27087563    -0.54720
C102        C  0.37188722  0.24917536  0.21451472     0.85330
O103        O  0.32666232  0.18567817  0.27637541    -0.56620
O104        O  0.28907557  0.24554487  0.29803038    -0.59910
In105      In  0.43803949  0.74849237  0.27266413     1.36870
C106        C  0.43014402  0.68258975  0.30941999     0.77780
O107        O  0.39161337  0.74571194  0.25513422    -0.60660
O108        O  0.42238317  0.75154102  0.20944414    -0.51570
C109        C  0.42770970  0.81474989  0.30882925     0.70450
O110        O  0.41866374  0.78281371  0.32001447    -0.46430
C111        C  0.49476024  0.74728858  0.26773021     0.75150
O112        O  0.43016801  0.71472329  0.32626276    -0.58290
O113        O  0.47923022  0.74793284  0.23688200    -0.48380
O114        O  0.43484863  0.68367306  0.27264860    -0.54720
C115        C  0.39619008  0.74897499  0.21873648     0.85330
O116        O  0.44266769  0.81327063  0.27784879    -0.56620
O117        O  0.48125874  0.74722530  0.29978714    -0.59910
In118      In  0.33104055  0.75107777  0.13573140     1.36870
C119        C  0.34238772  0.68638584  0.09733494     0.77780
O120        O  0.37735414  0.75415549  0.15336256    -0.60660
O121        O  0.34656626  0.74648255  0.19884558    -0.51570
C122        C  0.33649997  0.81770454  0.09953590     0.70450
O123        O  0.33533790  0.78573819  0.08243513    -0.46430
C124        C  0.27431899  0.75077667  0.14060800     0.75150
O125        O  0.35272069  0.71842864  0.08870829    -0.58290
O126        O  0.28976878  0.75187679  0.17158649    -0.48380
O127        O  0.32629931  0.68691393  0.12727644    -0.54720
C128        C  0.37275298  0.74984782  0.18965207     0.85330
O129        O  0.33454981  0.81605452  0.13674481    -0.56620
O130        O  0.28791339  0.74946192  0.10867317    -0.59910
In131      In  0.38163443  0.99941818  0.45156955     1.36870
C132        C  0.40193594  0.04704420  0.00563382     0.77780
O133        O  0.38914143  0.04859758  0.41273562    -0.60660
O134        O  0.34554576  0.03085851  0.42159657    -0.51570
C135        C  0.39706640  0.95068707  0.39575040     0.70450
O136        O  0.41559218  0.97018344  0.41505592    -0.46430
C137        C  0.36480462  0.94707118  0.00224655     0.75150
O138        O  0.41844884  0.02944163  0.48210714    -0.58290
O139        O  0.34695952  0.96875836  0.48526266    -0.48380
O140        O  0.37552589  0.03918177  0.00169829    -0.54720
C141        C  0.36287378  0.05431618  0.40591077     0.85330
O142        O  0.37123772  0.95754793  0.40417258    -0.56620
O143        O  0.39086310  0.95305356  0.49395320    -0.59910
In144      In  0.38463825  0.49891519  0.45461420     1.36870
C145        C  0.40519729  0.44898508  0.00532095     0.77780
O146        O  0.39537855  0.54403044  0.49825728    -0.60660
O147        O  0.35088720  0.53059154  0.48865893    -0.51570
C148        C  0.39967375  0.55185764  0.40380714     0.70450
O149        O  0.41835653  0.53267419  0.42237226    -0.46430
C150        C  0.36310153  0.44725397  0.40565549     0.75150
O151        O  0.42119362  0.46473172  0.47980557    -0.58290
O152        O  0.34745976  0.46463764  0.43036349    -0.48380
O153        O  0.37945809  0.45976908  0.00487166    -0.54720
C154        C  0.36953934  0.55127717  0.00639406     0.85330
O155        O  0.37389888  0.54189028  0.40944432    -0.56620
O156        O  0.38914359  0.45752479  0.40519531    -0.59910
C157        C  0.37727188  0.61790861  0.02513160    -0.12070
C158        C  0.36233674  0.58389833  0.03213603     0.04940
C159        C  0.34069840  0.58304755  0.06132768    -0.07350
C160        C  0.33449030  0.61694584  0.08228704    -0.08100
C161        C  0.34889467  0.65144423  0.07408395    -0.02650
C162        C  0.37002052  0.65181068  0.04420748     0.04170
N163        N  0.38360898  0.68642463  0.03151824     0.66670
H164        H  0.39391226  0.61856731  0.00292786     0.15570
H165        H  0.31844860  0.61635102  0.10531722     0.15280
N166        N  0.32585991  0.54822740  0.07129541     0.74380
O167        O  0.41065048  0.68842631  0.02987239    -0.39070
O168        O  0.36887954  0.71112665  0.01375732    -0.39010
O169        O  0.33829158  0.51650855  0.06846311    -0.39720
O170        O  0.30139971  0.54939280  0.08712247    -0.39790
C171        C  0.34652556  0.92154260  0.06647177    -0.12070
C172        C  0.35615672  0.91514599  0.02769501     0.04940
C173        C  0.35811186  0.87758942  0.01336281    -0.07350
C174        C  0.35009515  0.84734588  0.03721667    -0.08100
C175        C  0.34123291  0.85290468  0.07633918    -0.02650
C176        C  0.33916365  0.89072234  0.09128433     0.04170
N177        N  0.32954637  0.89851703  0.13079009     0.66670
H178        H  0.34492746  0.95053762  0.07750823     0.15570
H179        H  0.35229221  0.81878255  0.02519928     0.15280
N180        N  0.36896474  0.86920318  0.47486040     0.74380
O181        O  0.34080665  0.92553147  0.15057091    -0.39070
O182        O  0.30701951  0.88269323  0.14352852    -0.39010
O183        O  0.39459732  0.87808601  0.46693556    -0.39720
O184        O  0.35610981  0.84457092  0.45361447    -0.39790
C185        C  0.40599280  0.65241087  0.36518702    -0.12070
C186        C  0.42339393  0.64763171  0.33191598     0.04940
C187        C  0.43285854  0.61058080  0.32174145    -0.07350
C188        C  0.42463705  0.57955241  0.34560840    -0.08100
C189        C  0.40702854  0.58472345  0.37878053    -0.02650
C190        C  0.39739703  0.62173653  0.38844227     0.04170
N191        N  0.37981329  0.62944172  0.42236641     0.66670
H192        H  0.39829006  0.68057538  0.37285737     0.15570
H193        H  0.43223784  0.55121342  0.33850382     0.15280
N194        N  0.45136512  0.60394896  0.28857445     0.74380
O195        O  0.38337557  0.66030010  0.44135383    -0.39070
O196        O  0.35725311  0.61019097  0.42822191    -0.39010
O197        O  0.47253464  0.62579731  0.28242551    -0.39720
O198        O  0.44906483  0.57334587  0.26881681    -0.39790
C199        C  0.43327287  0.88558813  0.31996818    -0.12070
C200        C  0.42041940  0.85050427  0.33020515     0.04940
C201        C  0.39926821  0.85015767  0.35992293    -0.07350
C202        C  0.39021205  0.88432415  0.37652563    -0.08100
C203        C  0.40439351  0.91870204  0.36907691    -0.02650
C204        C  0.42591043  0.91991692  0.33966949     0.04170
N205        N  0.43914133  0.95538489  0.32796846     0.66670
H206        H  0.44909696  0.88616967  0.29666801     0.15570
H207        H  0.37296479  0.88369720  0.39755733     0.15280
N208        N  0.38781217  0.81531146  0.37538412     0.74380
O209        O  0.46203713  0.95529335  0.30817593    -0.39070
O210        O  0.42650413  0.98665993  0.33342322    -0.39010
O211        O  0.40368003  0.79434343  0.39626074    -0.39720
O212        O  0.36105886  0.80926247  0.37473575    -0.39790
C213        C  0.33427167  0.35132555  0.37169372    -0.12070
C214        C  0.33923691  0.35280575  0.33073138     0.04940
C215        C  0.34926970  0.38731283  0.31413122    -0.07350
C216        C  0.35644402  0.41806773  0.33932324    -0.08100
C217        C  0.35257183  0.41576495  0.38036439    -0.02650
C218        C  0.34091925  0.38220114  0.39678101     0.04170
N219        N  0.33763136  0.37777013  0.43883436     0.66670
H220        H  0.32644570  0.32510643  0.38470740     0.15570
H221        H  0.36513453  0.44405333  0.32680109     0.15280
N222        N  0.35301034  0.39147102  0.27227694     0.74380
O223        O  0.31737117  0.35749944  0.45206809    -0.39070
O224        O  0.35709889  0.38917308  0.46241096    -0.39010
O225        O  0.33173315  0.38700564  0.24928077    -0.39720
O226        O  0.37552415  0.40715478  0.25929437    -0.39790
C227        C  0.35897271  0.15474192  0.36886286    -0.12070
C228        C  0.34681831  0.14955819  0.33098289     0.04940
C229        C  0.33780867  0.11244400  0.31900506    -0.07350
C230        C  0.34115120  0.08184512  0.34533717    -0.08100
C231        C  0.35390636  0.08738663  0.38266873    -0.02650
C232        C  0.36251795  0.12431988  0.39482982     0.04170
N233        N  0.37452013  0.13148842  0.43362643     0.66670
H234        H  0.36530343  0.18303392  0.37888610     0.15570
H235        H  0.33540437  0.05320019  0.33570957     0.15280
N236        N  0.32675406  0.10478473  0.27992720     0.74380
O237        O  0.39248608  0.15825104  0.43903821    -0.39070
O238        O  0.36473908  0.11420659  0.46332418    -0.39010
O239        O  0.34056389  0.11592917  0.25009199    -0.39720
O240        O  0.30644715  0.08106051  0.27505451    -0.39790
C241        C  0.43748171  0.39488512  0.02081285    -0.12070
C242        C  0.41495379  0.41869038  0.03237876     0.04940
C243        C  0.40033171  0.41091552  0.06797742    -0.07350
C244        C  0.40734261  0.37870465  0.09001317    -0.08100
C245        C  0.42833109  0.35342245  0.07684923    -0.02650
C246        C  0.44442995  0.36222215  0.04266550     0.04170
N247        N  0.46784867  0.33862774  0.03000768     0.66670
H248        H  0.44912629  0.40110402  0.49396109     0.15570
H249        H  0.39514363  0.37225910  0.11636769     0.15280
N250        N  0.37773651  0.43484398  0.08167160     0.74380
O251        O  0.47483055  0.33739537  0.99398389    -0.39070
O252        O  0.48371097  0.32251186  0.05517093    -0.39010
O253        O  0.35208352  0.42707210  0.07207299    -0.39720
O254        O  0.38272506  0.45858981  0.10917647    -0.39790
C255        C  0.43511970  0.10026822  0.02247772    -0.12070
C256        C  0.41209307  0.07680908  0.03373605     0.04940
C257        C  0.39661251  0.08581086  0.06842531    -0.07350
C258        C  0.40336194  0.11944286  0.08936017    -0.08100
C259        C  0.42511634  0.14411607  0.07657726    -0.02650
C260        C  0.44192338  0.13410145  0.04329736     0.04170
N261        N  0.46546882  0.15774172  0.02985912     0.66670
H262        H  0.44697304  0.09305188  0.99604182     0.15570
H263        H  0.39102480  0.12699904  0.11529615     0.15280
N264        N  0.37397435  0.06140837  0.08261393     0.74380
O265        O  0.47662637  0.15167681  0.99646670    -0.39070
O266        O  0.47675489  0.18281802  0.05215049    -0.39010
O267        O  0.37676742  0.02564181  0.08182329    -0.39720
O268        O  0.35263083  0.07551777  0.10008824    -0.39790
C269        C  0.18688121  0.60142281  0.02533393    -0.12070
C270        C  0.16480058  0.57711511  0.03806298     0.04940
C271        C  0.15049046  0.58535261  0.07384637    -0.07350
C272        C  0.15671801  0.61974921  0.09379383    -0.08100
C273        C  0.17707529  0.64562061  0.07919722    -0.02650
C274        C  0.19338931  0.63579671  0.04531622     0.04170
N275        N  0.21657153  0.65947215  0.03075124     0.66670
H276        H  0.19797808  0.59466639  0.49813275     0.15570
H277        H  0.14516994  0.62685158  0.12054878     0.15280
N278        N  0.12986480  0.55917532  0.09032588     0.74380
O279        O  0.23532174  0.64531162  0.00832398    -0.39070
O280        O  0.21843694  0.69448591  0.03927075    -0.39010
O281        O  0.13340657  0.52364271  0.08706244    -0.39720
O282        O  0.11005085  0.57129968  0.11227126    -0.39790
C283        C  0.15290837  0.87692442  0.08780885    -0.12070
C284        C  0.17633874  0.85444055  0.07722402     0.04940
C285        C  0.19501647  0.86676557  0.04679407    -0.07350
C286        C  0.18804873  0.89987413  0.02566805    -0.08100
C287        C  0.16324758  0.92069354  0.03420277    -0.02650
C288        C  0.14630947  0.91021684  0.06708532     0.04170
N289        N  0.12260442  0.93308125  0.08000991     0.66670
H290        H  0.13938866  0.86812612  0.11212774     0.15570
H291        H  0.20130329  0.90832059  0.00097165     0.15280
N292        N  0.22112416  0.84693426  0.03712500     0.74380
O293        O  0.10074141  0.91746552  0.09499657    -0.39070
O294        O  0.12507251  0.96894657  0.08154226    -0.39010
O295        O  0.22367463  0.81165965  0.04300643    -0.39720
O296        O  0.24169086  0.86469102  0.02123569    -0.39790
C297        C  0.13303414  0.60963523  0.36973225    -0.12070
C298        C  0.11086929  0.58362974  0.37856099     0.04940
C299        C  0.08365733  0.58827642  0.36031547    -0.07350
C300        C  0.07926132  0.61910247  0.33461703    -0.08100
C301        C  0.10121415  0.64585501  0.32754979    -0.02650
C302        C  0.12866455  0.64038267  0.34438785     0.04170
N303        N  0.15244706  0.66534948  0.33555476     0.66670
H304        H  0.15418708  0.60605682  0.38264707     0.15570
H305        H  0.05811634  0.62334775  0.32186810     0.15280
N306        N  0.06022620  0.56258910  0.36766270     0.74380
O307        O  0.17162409  0.67209121  0.36135809    -0.39070
O308        O  0.15613786  0.67714271  0.30072801    -0.39010
O309        O  0.04937541  0.56122947  0.40174651    -0.39720
O310        O  0.04660115  0.54789089  0.33883325    -0.39790
C311        C  0.09461241  0.88309301  0.39938389    -0.12070
C312        C  0.10146856  0.91699780  0.37999192     0.04940
C313        C  0.10067912  0.91829908  0.33805254    -0.07350
C314        C  0.09429015  0.88443263  0.31685364    -0.08100
C315        C  0.08912071  0.84984912  0.33638214    -0.02650
C316        C  0.08814788  0.84964046  0.37823166     0.04170
N317        N  0.08056822  0.81590604  0.39977170     0.66670
H318        H  0.09485387  0.88248193  0.43146908     0.15570
H319        H  0.09470398  0.88462102  0.28480959     0.15280
N320        N  0.10626721  0.95298500  0.31645461     0.74380
O321        O  0.09385234  0.80782751  0.43127503    -0.39070
O322        O  0.05810948  0.79729906  0.39060669    -0.39010
O323        O  0.11910626  0.98105670  0.33240141    -0.39720
O324        O  0.09850266  0.95558605  0.28069099    -0.39790
C325        C  0.16491248  0.38369951  0.31575349    -0.12070
C326        C  0.17763542  0.35262888  0.33464708     0.04940
C327        C  0.18555629  0.35574485  0.37498074    -0.07350
C328        C  0.17827554  0.38866582  0.39622038    -0.08100
C329        C  0.16370321  0.41875699  0.37816796    -0.02650
C330        C  0.15766517  0.41700984  0.33685295     0.04170
N331        N  0.14527903  0.44838330  0.31532545     0.66670
H332        H  0.15939606  0.38125753  0.28461776     0.15570
H333        H  0.18351558  0.39053149  0.42749745     0.15280
N334        N  0.20131958  0.32614856  0.39458019     0.74380
O335        O  0.14944240  0.45129745  0.27857617    -0.39070
O336        O  0.12944647  0.47256647  0.33197529    -0.39010
O337        O  0.22115959  0.30891598  0.37674655    -0.39720
O338        O  0.19800935  0.32052738  0.43113512    -0.39790
C339        C  0.14610106  0.08718711  0.34113429    -0.12070
C340        C  0.16358415  0.07890251  0.37403210     0.04940
C341        C  0.18745804  0.10281781  0.38266546    -0.07350
C342        C  0.19154508  0.13615623  0.36072467    -0.08100
C343        C  0.17328373  0.14526734  0.32908580    -0.02650
C344        C  0.15070431  0.11995826  0.31827286     0.04170
N345        N  0.13127567  0.12791847  0.28604596     0.66670
H346        H  0.12782608  0.06888053  0.33429312     0.15570
H347        H  0.20924765  0.15518618  0.36837700     0.15280
N348        N  0.20706952  0.09468248  0.41436075     0.74380
O349        O  0.11937898  0.10081581  0.26711746    -0.39070
O350        O  0.12344928  0.16159160  0.27914548    -0.39010
O351        O  0.22115220  0.06411853  0.41364576    -0.39720
O352        O  0.21465878  0.12089365  0.43814717    -0.39790
C353        C  0.09703595  0.34567973  0.03368888    -0.12070
C354        C  0.09312325  0.34980514  0.07471466     0.04940
C355        C  0.09294423  0.38700918  0.09147063    -0.07350
C356        C  0.09682746  0.41872595  0.06675035    -0.08100
C357        C  0.10141752  0.41408350  0.02605697    -0.02650
C358        C  0.10129952  0.37718279  0.00922530     0.04170
N359        N  0.10623431  0.37111211  0.46762191     0.66670
H360        H  0.09682878  0.31749944  0.02031015     0.15570
H361        H  0.09803942  0.44707043  0.07973575     0.15280
N362        N  0.09065858  0.39324600  0.13336517     0.74380
O363        O  0.11840476  0.34115761  0.45572103    -0.39070
O364        O  0.09609701  0.39375336  0.44238547    -0.39010
O365        O  0.10799431  0.37723664  0.15667835    -0.39720
O366        O  0.07548202  0.42019388  0.14628298    -0.39790
C367        C  0.12316277  0.13166264  0.08198615    -0.12070
C368        C  0.09480422  0.14426818  0.08309956     0.04940
C369        C  0.07294128  0.12306964  0.06323422    -0.07350
C370        C  0.08073388  0.09113903  0.04027016    -0.08100
C371        C  0.10952179  0.07982680  0.03725244    -0.02650
C372        C  0.13066551  0.09905863  0.06049988     0.04170
N373        N  0.15968581  0.08572828  0.06317919     0.66670
H374        H  0.13964041  0.14726413  0.09837974     0.15570
H375        H  0.06437907  0.07617075  0.02309576     0.15280
N376        N  0.04322081  0.13418160  0.06434723     0.74380
O377        O  0.18035638  0.10928916  0.06364237    -0.39070
O378        O  0.16438680  0.05143615  0.07204493    -0.39010
O379        O  0.03636315  0.16870558  0.06832644    -0.39720
O380        O  0.02359067  0.10962477  0.05859512    -0.39790
In381      In  0.08137084  0.24887874  0.63608606     1.36870
C382        C  0.08909239  0.31441234  0.59796547     0.77780
O383        O  0.03851150  0.25032256  0.60764906    -0.60660
O384        O  0.03961376  0.24782723  0.67056563    -0.51570
C385        C  0.08965616  0.18103128  0.60280766     0.70450
O386        O  0.10051979  0.21142557  0.58997206    -0.46430
C387        C  0.12181890  0.25029943  0.69232955     0.75150
O388        O  0.09354431  0.28204188  0.58297821    -0.58290
O389        O  0.09544049  0.25221953  0.70040013    -0.48380
O390        O  0.08067395  0.31342496  0.63336921    -0.54720
C391        C  0.02451932  0.24911179  0.63934211     0.85330
O392        O  0.07463953  0.18484175  0.63347895    -0.56620
O393        O  0.12724146  0.24794643  0.65605274    -0.59910
In394      In  0.18653607  0.24956074  0.77614479     1.36870
C395        C  0.17781623  0.18209173  0.80944011     0.77780
O396        O  0.13984095  0.25275311  0.75891472    -0.60660
O397        O  0.17089161  0.24791181  0.71330869    -0.51570
C398        C  0.18032202  0.31622860  0.81289700     0.70450
O399        O  0.17491263  0.28467573  0.82883141    -0.46430
C400        C  0.24337587  0.24855904  0.76787784     0.75150
O401        O  0.17858997  0.21293758  0.82870880    -0.58290
O402        O  0.22699252  0.25237568  0.73828970    -0.48380
O403        O  0.18133410  0.18547329  0.77264501    -0.54720
C404        C  0.14470289  0.25043131  0.72233113     0.85330
O405        O  0.18798942  0.31398774  0.77723098    -0.56620
O406        O  0.23068151  0.24503379  0.80029421    -0.59910
In407      In  0.08288257  0.74815604  0.77350477     1.36870
C408        C  0.08709043  0.81397356  0.81303214     0.77780
O409        O  0.12840378  0.75445286  0.75354013    -0.60660
O410        O  0.09637959  0.74556460  0.70939142    -0.51570
C411        C  0.09446804  0.68172666  0.80717271     0.70450
O412        O  0.10454964  0.71319456  0.81912187    -0.46430
C413        C  0.02614101  0.74695619  0.76796762     0.75150
O414        O  0.09217659  0.78201313  0.82802091    -0.58290
O415        O  0.04154146  0.74942496  0.73743071    -0.48380
O416        O  0.08067042  0.81261547  0.77666023    -0.54720
C417        C  0.12269089  0.75035478  0.71735329     0.85330
O418        O  0.07816720  0.68382603  0.77729818    -0.56620
O419        O  0.03978141  0.74459812  0.80012211    -0.59910
In420      In  0.18613559  0.75101975  0.63293832     1.36870
C421        C  0.17975162  0.68291466  0.59912491     0.77780
O422        O  0.22962710  0.75128165  0.60739748    -0.60660
O423        O  0.22718500  0.75106396  0.67013422    -0.51570
C424        C  0.17975495  0.81784268  0.59754512     0.70450
O425        O  0.17534347  0.78641383  0.58018694    -0.46430
C426        C  0.14514373  0.75082648  0.68724522     0.75150
O427        O  0.17235884  0.71335955  0.58251422    -0.58290
O428        O  0.17145742  0.75396695  0.69597891    -0.48380
O429        O  0.18927129  0.68693932  0.63396883    -0.54720
C430        C  0.24293501  0.75107541  0.63987490     0.85330
O431        O  0.18655655  0.81538013  0.63360950    -0.56620
O432        O  0.13973709  0.74788426  0.65077312    -0.59910
In433      In  0.13405083  0.99974522  0.95406581     1.36870
C434        C  0.11242163  0.94844637  0.90485495     0.77780
O435        O  0.12732780  0.04111398  0.90543507    -0.60660
O436        O  0.17023975  0.03069749  0.92443739    -0.51570
C437        C  0.11755218  0.05069619  0.50726756     0.70450
O438        O  0.09945903  0.03059777  0.98784617    -0.46430
C439        C  0.15354648  0.94994155  0.50585987     0.75150
O440        O  0.09639871  0.96943152  0.92575708    -0.58290
O441        O  0.17029040  0.96768072  0.98281788    -0.48380
O442        O  0.13906383  0.95455527  0.90857352    -0.54720
C443        C  0.15370124  0.04905771  0.90175021     0.85330
O444        O  0.14336753  0.04489102  0.49823371    -0.56620
O445        O  0.12733743  0.95784341  0.50175643    -0.59910
In446      In  0.13393738  0.49893833  0.95655020     1.36870
C447        C  0.11222650  0.44643926  0.50309325     0.77780
O448        O  0.12751833  0.45807389  0.90672426    -0.60660
O449        O  0.17013392  0.46668686  0.92895358    -0.51570
C450        C  0.11796625  0.55208768  0.90593894     0.70450
O451        O  0.09968370  0.53125762  0.92335805    -0.46430
C452        C  0.15431644  0.54710253  0.51050530     0.75150
O453        O  0.09615198  0.46935845  0.98462763    -0.58290
O454        O  0.17064762  0.52903438  0.98729356    -0.48380
O455        O  0.13885426  0.45160382  0.49877381    -0.54720
C456        C  0.15369959  0.44944187  0.90453462     0.85330
O457        O  0.14375574  0.54469516  0.91432708    -0.56620
O458        O  0.12788256  0.53942911  0.50664074    -0.59910
In459      In  0.43617569  0.24885422  0.63090620     1.36870
C460        C  0.43078217  0.31634724  0.59662885     0.77780
O461        O  0.38946093  0.24690768  0.64792176    -0.60660
O462        O  0.42094516  0.25114990  0.69374090    -0.51570
C463        C  0.42823324  0.18121516  0.59671538     0.70450
O464        O  0.42215333  0.21203121  0.57983305    -0.46430
C465        C  0.49310061  0.24908397  0.63833414     0.75150
O466        O  0.43026930  0.28534216  0.57758054    -0.58290
O467        O  0.47717470  0.24760060  0.66838694    -0.48380
O468        O  0.43306422  0.31296867  0.63364854    -0.54720
C469        C  0.39461313  0.24904715  0.68458159     0.85330
O470        O  0.43740720  0.18471534  0.63177626    -0.56620
O471        O  0.47991980  0.25045802  0.60587599    -0.59910
In472      In  0.33175173  0.24964277  0.77043441     1.36870
C473        C  0.33668708  0.31659579  0.80794502     0.77780
O474        O  0.37752958  0.25267457  0.75083309    -0.60660
O475        O  0.34544561  0.24586300  0.70629460    -0.51570
C476        C  0.34241722  0.18426102  0.80688676     0.70450
O477        O  0.35344452  0.21586126  0.81689204    -0.46430
C478        C  0.27479041  0.24858181  0.76655964     0.75150
O479        O  0.33767857  0.28485112  0.82492535    -0.58290
O480        O  0.28962785  0.25185850  0.73552836    -0.48380
O481        O  0.33366792  0.31422157  0.77087565    -0.54720
C482        C  0.37188722  0.24917539  0.71451474     0.85330
O483        O  0.32666229  0.18567818  0.77637540    -0.56620
O484        O  0.28907557  0.24554493  0.79803039    -0.59910
In485      In  0.43803980  0.74849221  0.77266359     1.36870
C486        C  0.43014405  0.68258972  0.80941971     0.77780
O487        O  0.39161360  0.74571232  0.75513408    -0.60660
O488        O  0.42238329  0.75154034  0.70944369    -0.51570
C489        C  0.42771071  0.81475013  0.80882830     0.70450
O490        O  0.41866476  0.78281408  0.82001391    -0.46430
C491        C  0.49476048  0.74728818  0.76772984     0.75150
O492        O  0.43016783  0.71472335  0.82626229    -0.58290
O493        O  0.47923053  0.74793249  0.73688156    -0.48380
O494        O  0.43484895  0.68367289  0.77264838    -0.54720
C495        C  0.39619021  0.74897482  0.71873626     0.85330
O496        O  0.44266835  0.81327059  0.77784754    -0.56620
O497        O  0.48125894  0.74722483  0.79978673    -0.59910
In498      In  0.33104048  0.75107763  0.63573157     1.36870
C499        C  0.34238764  0.68638577  0.59733498     0.77780
O500        O  0.37735411  0.75415511  0.65336244    -0.60660
O501        O  0.34656632  0.74648255  0.69884568    -0.51570
C502        C  0.33649992  0.81770449  0.59953636     0.70450
O503        O  0.33533777  0.78573820  0.58243547    -0.46430
C504        C  0.27431894  0.75077655  0.64060810     0.75150
O505        O  0.35272052  0.71842862  0.58870828    -0.58290
O506        O  0.28976870  0.75187650  0.67158662    -0.48380
O507        O  0.32629931  0.68691380  0.62727657    -0.54720
C508        C  0.37275303  0.74984763  0.68965200     0.85330
O509        O  0.33454979  0.81605437  0.63674526    -0.56620
O510        O  0.28791335  0.74946191  0.60867328    -0.59910
In511      In  0.38163500  0.99941809  0.95156900     1.36870
C512        C  0.40193567  0.04704430  0.50563411     0.77780
O513        O  0.38914169  0.04859799  0.91273566    -0.60660
O514        O  0.34554616  0.03085799  0.92159588    -0.51570
C515        C  0.39706772  0.95068749  0.89574959     0.70450
O516        O  0.41559325  0.97018390  0.91505550    -0.46430
C517        C  0.36480440  0.94707125  0.50224716     0.75150
O518        O  0.41844923  0.02944162  0.98210694    -0.58290
O519        O  0.34695986  0.96875817  0.98526167    -0.48380
O520        O  0.37552558  0.03918196  0.50169877    -0.54720
C521        C  0.36287402  0.05431614  0.90591052     0.85330
O522        O  0.37123896  0.95754806  0.90417155    -0.56620
O523        O  0.39086337  0.95305347  0.99395287    -0.59910
In524      In  0.38463827  0.49891522  0.95461419     1.36870
C525        C  0.40519728  0.44898507  0.50532094     0.77780
O526        O  0.39537857  0.54403044  0.99825730    -0.60660
O527        O  0.35088721  0.53059156  0.98865892    -0.51570
C528        C  0.39967377  0.55185772  0.90380714     0.70450
O529        O  0.41835654  0.53267424  0.92237225    -0.46430
C530        C  0.36310154  0.44725399  0.90565549     0.75150
O531        O  0.42119363  0.46473173  0.97980556    -0.58290
O532        O  0.34745978  0.46463766  0.93036348    -0.48380
O533        O  0.37945807  0.45976905  0.50487166    -0.54720
C534        C  0.36953933  0.55127716  0.50639406     0.85330
O535        O  0.37389890  0.54189036  0.90944434    -0.56620
O536        O  0.38914361  0.45752481  0.90519531    -0.59910
C537        C  0.37727186  0.61790860  0.52513164    -0.12070
C538        C  0.36233672  0.58389832  0.53213603     0.04940
C539        C  0.34069838  0.58304752  0.56132767    -0.07350
C540        C  0.33449026  0.61694580  0.58228704    -0.08100
C541        C  0.34889462  0.65144420  0.57408397    -0.02650
C542        C  0.37002048  0.65181066  0.54420752     0.04170
N543        N  0.38360894  0.68642463  0.53151831     0.66670
H544        H  0.39391226  0.61856731  0.50292792     0.15570
H545        H  0.31844855  0.61635095  0.60531721     0.15280
N546        N  0.32585990  0.54822736  0.57129538     0.74380
O547        O  0.41065044  0.68842631  0.52987246    -0.39070
O548        O  0.36887951  0.71112664  0.51375739    -0.39010
O549        O  0.33829157  0.51650851  0.56846310    -0.39720
O550        O  0.30139969  0.54939274  0.58712244    -0.39790
C551        C  0.34652542  0.92154257  0.56647231    -0.12070
C552        C  0.35615667  0.91514599  0.52769559     0.04940
C553        C  0.35811199  0.87758940  0.51336344    -0.07350
C554        C  0.35009531  0.84734586  0.53721730    -0.08100
C555        C  0.34123292  0.85290466  0.57633973    -0.02650
C556        C  0.33916355  0.89072230  0.59128487     0.04170
N557        N  0.32954620  0.89851698  0.63079059     0.66670
H558        H  0.34492720  0.95053760  0.57750873     0.15570
H559        H  0.35229248  0.81878253  0.52519998     0.15280
N560        N  0.36896460  0.86920326  0.97485977     0.74380
O561        O  0.34080638  0.92553150  0.65057140    -0.39070
O562        O  0.30701938  0.88269308  0.64352900    -0.39010
O563        O  0.39459737  0.87808537  0.96693526    -0.39720
O564        O  0.35610926  0.84457175  0.95361338    -0.39790
C565        C  0.40599283  0.65241093  0.86518687    -0.12070
C566        C  0.42339395  0.64763173  0.83191581     0.04940
C567        C  0.43285857  0.61058079  0.82174138    -0.07350
C568        C  0.42463708  0.57955244  0.84560838    -0.08100
C569        C  0.40702857  0.58472351  0.87878050    -0.02650
C570        C  0.39739707  0.62173662  0.88844218     0.04170
N571        N  0.37981334  0.62944185  0.92236633     0.66670
H572        H  0.39829009  0.68057546  0.87285717     0.15570
H573        H  0.43223788  0.55121344  0.83850385     0.15280
N574        N  0.45136516  0.60394889  0.78857441     0.74380
O575        O  0.38337564  0.66030023  0.94135372    -0.39070
O576        O  0.35725317  0.61019110  0.92822188    -0.39010
O577        O  0.47253478  0.62579710  0.78242558    -0.39720
O578        O  0.44906481  0.57334583  0.76881674    -0.39790
C579        C  0.43327415  0.88558850  0.81996712    -0.12070
C580        C  0.42042072  0.85050466  0.83020419     0.04940
C581        C  0.39926971  0.85015812  0.85992224    -0.07350
C582        C  0.39021381  0.88432457  0.87652499    -0.08100
C583        C  0.40439507  0.91870247  0.86907619    -0.02650
C584        C  0.42591185  0.91991735  0.83966848     0.04170
N585        N  0.43914260  0.95538535  0.82796723     0.66670
H586        H  0.44909821  0.88617001  0.79666656     0.15570
H587        H  0.37296616  0.88369754  0.89755746     0.15280
N588        N  0.38781355  0.81531198  0.87538337     0.74380
O589        O  0.46203813  0.95529383  0.80817408    -0.39070
O590        O  0.42650553  0.98666040  0.83342247    -0.39010
O591        O  0.40368126  0.79434392  0.89626018    -0.39720
O592        O  0.36106022  0.80926310  0.87473475    -0.39790
C593        C  0.33427169  0.35132556  0.87169374    -0.12070
C594        C  0.33923693  0.35280576  0.83073140     0.04940
C595        C  0.34926971  0.38731284  0.81413123    -0.07350
C596        C  0.35644402  0.41806774  0.83932325    -0.08100
C597        C  0.35257185  0.41576496  0.88036440    -0.02650
C598        C  0.34091928  0.38220114  0.89678103     0.04170
N599        N  0.33763139  0.37777014  0.93883437     0.66670
H600        H  0.32644573  0.32510643  0.88470742     0.15570
H601        H  0.36513452  0.44405334  0.82680109     0.15280
N602        N  0.35301033  0.39147103  0.77227695     0.74380
O603        O  0.31737121  0.35749943  0.95206811    -0.39070
O604        O  0.35709892  0.38917310  0.96241097    -0.39010
O605        O  0.33173313  0.38700565  0.74928079    -0.39720
O606        O  0.37552414  0.40715479  0.75929437    -0.39790
C607        C  0.35897261  0.15474192  0.86886288    -0.12070
C608        C  0.34681826  0.14955819  0.83098288     0.04940
C609        C  0.33780866  0.11244400  0.81900501    -0.07350
C610        C  0.34115124  0.08184509  0.84533707    -0.08100
C611        C  0.35390642  0.08738658  0.88266863    -0.02650
C612        C  0.36251791  0.12431985  0.89482979     0.04170
N613        N  0.37452006  0.13148837  0.93362641     0.66670
H614        H  0.36530328  0.18303392  0.87888616     0.15570
H615        H  0.33540447  0.05320015  0.83570942     0.15280
N616        N  0.32675407  0.10478474  0.77992713     0.74380
O617        O  0.39248598  0.15825102  0.93903825    -0.39070
O618        O  0.36473902  0.11420647  0.96332413    -0.39010
O619        O  0.34056392  0.11592921  0.75009195    -0.39720
O620        O  0.30644719  0.08106049  0.77505440    -0.39790
C621        C  0.43748172  0.39488513  0.52081287    -0.12070
C622        C  0.41495379  0.41869039  0.53237876     0.04940
C623        C  0.40033171  0.41091553  0.56797742    -0.07350
C624        C  0.40734262  0.37870467  0.59001318    -0.08100
C625        C  0.42833111  0.35342248  0.57684926    -0.02650
C626        C  0.44442997  0.36222218  0.54266552     0.04170
N627        N  0.46784869  0.33862778  0.53000771     0.66670
H628        H  0.44912629  0.40110400  0.99396108     0.15570
H629        H  0.39514364  0.37225912  0.61636771     0.15280
N630        N  0.37773650  0.43484397  0.58167159     0.74380
O631        O  0.47483058  0.33739540  0.49398392    -0.39070
O632        O  0.48371098  0.32251189  0.55517097    -0.39010
O633        O  0.35208351  0.42707208  0.57207296    -0.39720
O634        O  0.38272503  0.45858981  0.60917646    -0.39790
C635        C  0.43511957  0.10026825  0.52247783    -0.12070
C636        C  0.41209294  0.07680915  0.53373626     0.04940
C637        C  0.39661249  0.08581095  0.56842560    -0.07350
C638        C  0.40336198  0.11944294  0.58936042    -0.08100
C639        C  0.42511635  0.14411612  0.57657739    -0.02650
C640        C  0.44192332  0.13410147  0.54329744     0.04170
N641        N  0.46546877  0.15774170  0.52985912     0.66670
H642        H  0.44697284  0.09305188  0.49604187     0.15570
H643        H  0.39102490  0.12699915  0.61529645     0.15280
N644        N  0.37397434  0.06140850  0.58261432     0.74380
O645        O  0.47662630  0.15167670  0.49646670    -0.39070
O646        O  0.47675486  0.18281804  0.55215041    -0.39010
O647        O  0.37676741  0.02564192  0.58182375    -0.39720
O648        O  0.35263082  0.07551793  0.60008858    -0.39790
C649        C  0.18688122  0.60142280  0.52533393    -0.12070
C650        C  0.16480059  0.57711510  0.53806299     0.04940
C651        C  0.15049047  0.58535259  0.57384638    -0.07350
C652        C  0.15671801  0.61974920  0.59379383    -0.08100
C653        C  0.17707528  0.64562061  0.57919721    -0.02650
C654        C  0.19338930  0.63579671  0.54531621     0.04170
N655        N  0.21657151  0.65947216  0.53075123     0.66670
H656        H  0.19797808  0.59466639  0.99813276     0.15570
H657        H  0.14516994  0.62685156  0.62054879     0.15280
N658        N  0.12986482  0.55917529  0.59032590     0.74380
O659        O  0.23532177  0.64531162  0.50832405    -0.39070
O660        O  0.21843685  0.69448596  0.53927062    -0.39010
O661        O  0.13340660  0.52364269  0.58706246    -0.39720
O662        O  0.11005088  0.57129965  0.61227130    -0.39790
C663        C  0.15290836  0.87692441  0.58780885    -0.12070
C664        C  0.17633874  0.85444054  0.57722402     0.04940
C665        C  0.19501647  0.86676557  0.54679407    -0.07350
C666        C  0.18804873  0.89987413  0.52566806    -0.08100
C667        C  0.16324758  0.92069354  0.53420277    -0.02650
C668        C  0.14630947  0.91021684  0.56708532     0.04170
N669        N  0.12260441  0.93308124  0.58000991     0.66670
H670        H  0.13938865  0.86812611  0.61212773     0.15570
H671        H  0.20130330  0.90832060  0.50097166     0.15280
N672        N  0.22112416  0.84693426  0.53712500     0.74380
O673        O  0.10074141  0.91746550  0.59499656    -0.39070
O674        O  0.12507250  0.96894656  0.58154226    -0.39010
O675        O  0.22367460  0.81165964  0.54300636    -0.39720
O676        O  0.24169087  0.86469104  0.52123575    -0.39790
C677        C  0.13303417  0.60963520  0.86973222    -0.12070
C678        C  0.11086931  0.58362972  0.87856097     0.04940
C679        C  0.08365735  0.58827643  0.86031546    -0.07350
C680        C  0.07926134  0.61910248  0.83461702    -0.08100
C681        C  0.10121418  0.64585500  0.82754978    -0.02650
C682        C  0.12866458  0.64038264  0.84438782     0.04170
N683        N  0.15244710  0.66534943  0.83555470     0.66670
H684        H  0.15418711  0.60605678  0.88264703     0.15570
H685        H  0.05811636  0.62334777  0.82186810     0.15280
N686        N  0.06022621  0.56258912  0.86766270     0.74380
O687        O  0.17162414  0.67209115  0.86135802    -0.39070
O688        O  0.15613789  0.67714266  0.80072795    -0.39010
O689        O  0.04937542  0.56122950  0.90174651    -0.39720
O690        O  0.04660115  0.54789090  0.83883326    -0.39790
C691        C  0.09461240  0.88309302  0.89938389    -0.12070
C692        C  0.10146856  0.91699780  0.87999192     0.04940
C693        C  0.10067912  0.91829908  0.83805254    -0.07350
C694        C  0.09429015  0.88443263  0.81685364    -0.08100
C695        C  0.08912071  0.84984912  0.83638214    -0.02650
C696        C  0.08814787  0.84964046  0.87823166     0.04170
N697        N  0.08056820  0.81590605  0.89977171     0.66670
H698        H  0.09485386  0.88248194  0.93146908     0.15570
H699        H  0.09470398  0.88462101  0.78480959     0.15280
N700        N  0.10626721  0.95298500  0.81645460     0.74380
O701        O  0.09385233  0.80782752  0.93127504    -0.39070
O702        O  0.05810947  0.79729906  0.89060669    -0.39010
O703        O  0.11910626  0.98105670  0.83240141    -0.39720
O704        O  0.09850267  0.95558604  0.78069098    -0.39790
C705        C  0.16491247  0.38369951  0.81575347    -0.12070
C706        C  0.17763541  0.35262889  0.83464706     0.04940
C707        C  0.18555630  0.35574485  0.87498072    -0.07350
C708        C  0.17827554  0.38866583  0.89622036    -0.08100
C709        C  0.16370320  0.41875700  0.87816794    -0.02650
C710        C  0.15766515  0.41700984  0.83685294     0.04170
N711        N  0.14527901  0.44838330  0.81532544     0.66670
H712        H  0.15939604  0.38125753  0.78461775     0.15570
H713        H  0.18351560  0.39053149  0.92749742     0.15280
N714        N  0.20131959  0.32614858  0.89458015     0.74380
O715        O  0.14944237  0.45129744  0.77857615    -0.39070
O716        O  0.12944646  0.47256648  0.83197529    -0.39010
O717        O  0.22115960  0.30891600  0.87674651    -0.39720
O718        O  0.19800937  0.32052740  0.93113509    -0.39790
C719        C  0.14610107  0.08718711  0.84113428    -0.12070
C720        C  0.16358415  0.07890252  0.87403209     0.04940
C721        C  0.18745804  0.10281783  0.88266547    -0.07350
C722        C  0.19154507  0.13615625  0.86072468    -0.08100
C723        C  0.17328373  0.14526734  0.82908580    -0.02650
C724        C  0.15070432  0.11995826  0.81827284     0.04170
N725        N  0.13127569  0.12791846  0.78604594     0.66670
H726        H  0.12782610  0.06888052  0.83429310     0.15570
H727        H  0.20924763  0.15518620  0.86837702     0.15280
N728        N  0.20706950  0.09468251  0.91436078     0.74380
O729        O  0.11937901  0.10081580  0.76711743    -0.39070
O730        O  0.12344929  0.16159158  0.77914545    -0.39010
O731        O  0.22115219  0.06411857  0.91364580    -0.39720
O732        O  0.21465874  0.12089368  0.93814720    -0.39790
C733        C  0.09703595  0.34567973  0.53368889    -0.12070
C734        C  0.09312325  0.34980514  0.57471466     0.04940
C735        C  0.09294423  0.38700918  0.59147063    -0.07350
C736        C  0.09682746  0.41872595  0.56675036    -0.08100
C737        C  0.10141752  0.41408350  0.52605697    -0.02650
C738        C  0.10129953  0.37718279  0.50922531     0.04170
N739        N  0.10623431  0.37111211  0.96762191     0.66670
H740        H  0.09682879  0.31749944  0.52031016     0.15570
H741        H  0.09803941  0.44707042  0.57973576     0.15280
N742        N  0.09065857  0.39324599  0.63336518     0.74380
O743        O  0.11840475  0.34115761  0.95572102    -0.39070
O744        O  0.09609700  0.39375336  0.94238547    -0.39010
O745        O  0.10799430  0.37723663  0.65667835    -0.39720
O746        O  0.07548202  0.42019388  0.64628298    -0.39790
C747        C  0.12316274  0.13166261  0.58198618    -0.12070
C748        C  0.09480419  0.14426816  0.58309957     0.04940
C749        C  0.07294126  0.12306963  0.56323422    -0.07350
C750        C  0.08073386  0.09113903  0.54027015    -0.08100
C751        C  0.10952177  0.07982679  0.53725245    -0.02650
C752        C  0.13066549  0.09905861  0.56049991     0.04170
N753        N  0.15968578  0.08572824  0.56317924     0.66670
H754        H  0.13964038  0.14726410  0.59837978     0.15570
H755        H  0.06437905  0.07617076  0.52309574     0.15280
N756        N  0.04322079  0.13418159  0.56434721     0.74380
O757        O  0.18035636  0.10928912  0.56364245    -0.39070
O758        O  0.16438676  0.05143611  0.57204496    -0.39010
O759        O  0.03636312  0.16870557  0.56832648    -0.39720
O760        O  0.02359065  0.10962477  0.55859506    -0.39790
In761      In  0.58137083  0.24887874  0.13608606     1.36870
C762        C  0.58909239  0.31441235  0.09796547     0.77780
O763        O  0.53851149  0.25032259  0.10764905    -0.60660
O764        O  0.53961374  0.24782718  0.17056561    -0.51570
C765        C  0.58965616  0.18103129  0.10280765     0.70450
O766        O  0.60051980  0.21142558  0.08997207    -0.46430
C767        C  0.62181888  0.25029943  0.19232955     0.75150
O768        O  0.59354430  0.28204188  0.08297821    -0.58290
O769        O  0.59544048  0.25221957  0.20040013    -0.48380
O770        O  0.58067395  0.31342497  0.13336921    -0.54720
C771        C  0.52451930  0.24911176  0.13934209     0.85330
O772        O  0.57463952  0.18484176  0.13347893    -0.56620
O773        O  0.62724145  0.24794639  0.15605274    -0.59910
In774      In  0.68653606  0.24956074  0.27614479     1.36870
C775        C  0.67781622  0.18209173  0.30944011     0.77780
O776        O  0.63984094  0.25275314  0.25891472    -0.60660
O777        O  0.67089160  0.24791178  0.21330869    -0.51570
C778        C  0.68032203  0.31622859  0.31289701     0.70450
O779        O  0.67491263  0.28467572  0.32883142    -0.46430
C780        C  0.74337587  0.24855902  0.26787783     0.75150
O781        O  0.67858997  0.21293757  0.32870880    -0.58290
O782        O  0.72699252  0.25237571  0.23828970    -0.48380
O783        O  0.68133409  0.18547328  0.27264501    -0.54720
C784        C  0.64470288  0.25043131  0.22233114     0.85330
O785        O  0.68798943  0.31398773  0.27723100    -0.56620
O786        O  0.73068151  0.24503374  0.30029420    -0.59910
In787      In  0.58288256  0.74815604  0.27350477     1.36870
C788        C  0.58709041  0.81397356  0.31303213     0.77780
O789        O  0.62840377  0.75445287  0.25354013    -0.60660
O790        O  0.59637959  0.74556459  0.20939141    -0.51570
C791        C  0.59446803  0.68172667  0.30717273     0.70450
O792        O  0.60454962  0.71319458  0.31912189    -0.46430
C793        C  0.52614099  0.74695619  0.26796761     0.75150
O794        O  0.59217658  0.78201313  0.32802091    -0.58290
O795        O  0.54154145  0.74942494  0.23743070    -0.48380
O796        O  0.58067041  0.81261547  0.27666023    -0.54720
C797        C  0.62269089  0.75035478  0.21735329     0.85330
O798        O  0.57816721  0.68382602  0.27729819    -0.56620
O799        O  0.53978138  0.74459813  0.30012210    -0.59910
In800      In  0.68613561  0.75101976  0.13293832     1.36870
C801        C  0.67975164  0.68291466  0.09912491     0.77780
O802        O  0.72962712  0.75128167  0.10739749    -0.60660
O803        O  0.72718501  0.75106399  0.17013422    -0.51570
C804        C  0.67975495  0.81784269  0.09754512     0.70450
O805        O  0.67534347  0.78641383  0.08018695    -0.46430
C806        C  0.64514373  0.75082648  0.18724522     0.75150
O807        O  0.67235888  0.71335956  0.08251421    -0.58290
O808        O  0.67145742  0.75396696  0.19597892    -0.48380
O809        O  0.68927129  0.68693933  0.13396884    -0.54720
C810        C  0.74293503  0.75107544  0.13987491     0.85330
O811        O  0.68655655  0.81538014  0.13360950    -0.56620
O812        O  0.63973710  0.74788426  0.15077312    -0.59910
In813      In  0.63405082  0.99974522  0.45406581     1.36870
C814        C  0.61242162  0.94844637  0.40485496     0.77780
O815        O  0.62732779  0.04111398  0.40543507    -0.60660
O816        O  0.67023974  0.03069749  0.42443739    -0.51570
C817        C  0.61755218  0.05069620  0.00726755     0.70450
O818        O  0.59945900  0.03059776  0.48784616    -0.46430
C819        C  0.65354647  0.94994155  0.00585986     0.75150
O820        O  0.59639870  0.96943151  0.42575708    -0.58290
O821        O  0.67029039  0.96768073  0.48281788    -0.48380
O822        O  0.63906382  0.95455527  0.40857352    -0.54720
C823        C  0.65370123  0.04905771  0.40175021     0.85330
O824        O  0.64336753  0.04489102  0.99823371    -0.56620
O825        O  0.62733743  0.95784341  0.00175643    -0.59910
In826      In  0.63393740  0.49893833  0.45655021     1.36870
C827        C  0.61222652  0.44643925  0.00309326     0.77780
O828        O  0.62751835  0.45807389  0.40672427    -0.60660
O829        O  0.67013394  0.46668685  0.42895358    -0.51570
C830        C  0.61796626  0.55208769  0.40593896     0.70450
O831        O  0.59968372  0.53125762  0.42335807    -0.46430
C832        C  0.65431646  0.54710253  0.01050531     0.75150
O833        O  0.59615200  0.46935845  0.48462764    -0.58290
O834        O  0.67064765  0.52903438  0.48729356    -0.48380
O835        O  0.63885428  0.45160381  0.99877381    -0.54720
C836        C  0.65369961  0.44944187  0.40453462     0.85330
O837        O  0.64375575  0.54469517  0.41432710    -0.56620
O838        O  0.62788258  0.53942912  0.00664074    -0.59910
In839      In  0.93617569  0.24885421  0.13090621     1.36870
C840        C  0.93078217  0.31634723  0.09662886     0.77780
O841        O  0.88946093  0.24690765  0.14792175    -0.60660
O842        O  0.92094516  0.25114992  0.19374090    -0.51570
C843        C  0.92823325  0.18121515  0.09671540     0.70450
O844        O  0.92215336  0.21203119  0.07983305    -0.46430
C845        C  0.99310062  0.24908395  0.13833415     0.75150
O846        O  0.93026929  0.28534215  0.07758055    -0.58290
O847        O  0.97717471  0.24760058  0.16838695    -0.48380
O848        O  0.93306424  0.31296866  0.13364854    -0.54720
C849        C  0.89461314  0.24904715  0.18458158     0.85330
O850        O  0.93740718  0.18471533  0.13177629    -0.56620
O851        O  0.97991981  0.25045801  0.10587600    -0.59910
In852      In  0.83175173  0.24964276  0.27043441     1.36870
C853        C  0.83668707  0.31659579  0.30794501     0.77780
O854        O  0.87752957  0.25267461  0.25083308    -0.60660
O855        O  0.84544561  0.24586296  0.20629459    -0.51570
C856        C  0.84241727  0.18426102  0.30688676     0.70450
O857        O  0.85344455  0.21586128  0.31689204    -0.46430
C858        C  0.77479041  0.24858179  0.26655963     0.75150
O859        O  0.83767855  0.28485111  0.32492533    -0.58290
O860        O  0.78962785  0.25185851  0.23552836    -0.48380
O861        O  0.83366791  0.31422156  0.27087563    -0.54720
C862        C  0.87188722  0.24917538  0.21451473     0.85330
O863        O  0.82666233  0.18567816  0.27637541    -0.56620
O864        O  0.78907557  0.24554485  0.29803037    -0.59910
In865      In  0.93803943  0.74849241  0.27266434     1.36870
C866        C  0.93014404  0.68258975  0.30942012     0.77780
O867        O  0.89161333  0.74571175  0.25513439    -0.60660
O868        O  0.92238313  0.75154119  0.20944435    -0.51570
C869        C  0.92770941  0.81474982  0.30882954     0.70450
O870        O  0.91866348  0.78281360  0.32001469    -0.46430
C871        C  0.99476019  0.74728870  0.26773034     0.75150
O872        O  0.93016811  0.71472326  0.32626295    -0.58290
O873        O  0.97923014  0.74793294  0.23688216    -0.48380
O874        O  0.93484856  0.68367311  0.27264870    -0.54720
C875        C  0.89619004  0.74897495  0.21873667     0.85330
O876        O  0.94266748  0.81327065  0.27784916    -0.56620
O877        O  0.98125871  0.74722545  0.29978729    -0.59910
In878      In  0.83104051  0.75107764  0.13573163     1.36870
C879        C  0.84238771  0.68638579  0.09733503     0.77780
O880        O  0.87735411  0.75415550  0.15336276    -0.60660
O881        O  0.84656623  0.74648232  0.19884577    -0.51570
C882        C  0.83649994  0.81770448  0.09953637     0.70450
O883        O  0.83533785  0.78573818  0.08243551    -0.46430
C884        C  0.77431897  0.75077660  0.14060812     0.75150
O885        O  0.85272065  0.71842862  0.08870842    -0.58290
O886        O  0.78976872  0.75187658  0.17158664    -0.48380
O887        O  0.82629932  0.68691383  0.12727656    -0.54720
C888        C  0.87275295  0.74984773  0.18965226     0.85330
O889        O  0.83454976  0.81605439  0.13674527    -0.56620
O890        O  0.78791339  0.74946193  0.10867331    -0.59910
In891      In  0.88163426  0.99941821  0.45156971     1.36870
C892        C  0.90193568  0.04704429  0.00563411     0.77780
O893        O  0.88914136  0.04859747  0.41273560    -0.60660
O894        O  0.84554564  0.03085867  0.42159678    -0.51570
C895        C  0.89706600  0.95068695  0.39575063     0.70450
O896        O  0.91559186  0.97018331  0.41505604    -0.46430
C897        C  0.86480440  0.94707125  0.00224715     0.75150
O898        O  0.91844873  0.02944163  0.48210720    -0.58290
O899        O  0.84695941  0.96875842  0.48526294    -0.48380
O900        O  0.87552559  0.03918196  0.00169877    -0.54720
C901        C  0.86287370  0.05431619  0.40591084     0.85330
O902        O  0.87123735  0.95754791  0.40417288    -0.56620
O903        O  0.89086302  0.95305359  0.49395329    -0.59910
In904      In  0.88463824  0.49891518  0.45461421     1.36870
C905        C  0.90519730  0.44898507  0.00532096     0.77780
O906        O  0.89537854  0.54403044  0.49825727    -0.60660
O907        O  0.85088719  0.53059153  0.48865894    -0.51570
C908        C  0.89967373  0.55185761  0.40380714     0.70450
O909        O  0.91835651  0.53267417  0.42237228    -0.46430
C910        C  0.86310153  0.44725396  0.40565550     0.75150
O911        O  0.92119361  0.46473172  0.47980557    -0.58290
O912        O  0.84745976  0.46463762  0.43036349    -0.48380
O913        O  0.87945809  0.45976905  0.00487168    -0.54720
C914        C  0.86953934  0.55127717  0.00639407     0.85330
O915        O  0.87389887  0.54189024  0.40944432    -0.56620
O916        O  0.88914359  0.45752478  0.40519532    -0.59910
C917        C  0.87727187  0.61790862  0.02513163    -0.12070
C918        C  0.86233674  0.58389833  0.03213604     0.04940
C919        C  0.84069840  0.58304753  0.06132769    -0.07350
C920        C  0.83449030  0.61694581  0.08228707    -0.08100
C921        C  0.84889465  0.65144421  0.07408399    -0.02650
C922        C  0.87002049  0.65181069  0.04420751     0.04170
N923        N  0.88360893  0.68642466  0.03151827     0.66670
H924        H  0.89391225  0.61856733  0.00292789     0.15570
H925        H  0.81844860  0.61635097  0.10531726     0.15280
N926        N  0.82585992  0.54822738  0.07129541     0.74380
O927        O  0.91065042  0.68842635  0.02987233    -0.39070
O928        O  0.86887945  0.71112668  0.01375741    -0.39010
O929        O  0.83829160  0.51650853  0.06846312    -0.39720
O930        O  0.80139972  0.54939276  0.08712248    -0.39790
C931        C  0.84652541  0.92154257  0.06647230    -0.12070
C932        C  0.85615666  0.91514598  0.02769558     0.04940
C933        C  0.85811199  0.87758939  0.01336343    -0.07350
C934        C  0.85009530  0.84734586  0.03721730    -0.08100
C935        C  0.84123292  0.85290465  0.07633973    -0.02650
C936        C  0.83916354  0.89072230  0.09128486     0.04170
N937        N  0.82954619  0.89851699  0.13079058     0.66670
H938        H  0.84492718  0.95053760  0.07750871     0.15570
H939        H  0.85229248  0.81878252  0.02519998     0.15280
N940        N  0.86896476  0.86920315  0.47486057     0.74380
O941        O  0.84080637  0.92553151  0.15057138    -0.39070
O942        O  0.80701937  0.88269309  0.14352898    -0.39010
O943        O  0.89459728  0.87808619  0.46693563    -0.39720
O944        O  0.85610994  0.84457069  0.45361478    -0.39790
C945        C  0.90599278  0.65241084  0.36518707    -0.12070
C946        C  0.92339394  0.64763170  0.33191606     0.04940
C947        C  0.93285855  0.61058079  0.32174150    -0.07350
C948        C  0.92463704  0.57955239  0.34560843    -0.08100
C949        C  0.90702852  0.58472342  0.37878054    -0.02650
C950        C  0.89739701  0.62173650  0.38844229     0.04170
N951        N  0.87981324  0.62944168  0.42236642     0.66670
H952        H  0.89829004  0.68057535  0.37285742     0.15570
H953        H  0.93223784  0.55121341  0.33850384     0.15280
N954        N  0.95136513  0.60394898  0.28857450     0.74380
O955        O  0.88337549  0.66030006  0.44135382    -0.39070
O956        O  0.85725306  0.61019091  0.42822188    -0.39010
O957        O  0.97253462  0.62579737  0.28242552    -0.39720
O958        O  0.94906487  0.57334588  0.26881686    -0.39790
C959        C  0.93327249  0.88558802  0.31996849    -0.12070
C960        C  0.92041901  0.85050417  0.33020544     0.04940
C961        C  0.89926776  0.85015755  0.35992312    -0.07350
C962        C  0.89021152  0.88432403  0.37652581    -0.08100
C963        C  0.90439304  0.91870193  0.36907712    -0.02650
C964        C  0.92591000  0.91991680  0.33966979     0.04170
N965        N  0.93914095  0.95538476  0.32796882     0.66670
H966        H  0.94909659  0.88616957  0.29666844     0.15570
H967        H  0.87296438  0.88369711  0.39755728     0.15280
N968        N  0.88781174  0.81531132  0.37538432     0.74380
O969        O  0.96203684  0.95529321  0.30817647    -0.39070
O970        O  0.92650372  0.98665980  0.33342344    -0.39010
O971        O  0.90367964  0.79434330  0.39626092    -0.39720
O972        O  0.86105844  0.80926230  0.37473601    -0.39790
C973        C  0.83427166  0.35132555  0.37169372    -0.12070
C974        C  0.83923690  0.35280575  0.33073138     0.04940
C975        C  0.84926971  0.38731283  0.31413122    -0.07350
C976        C  0.85644402  0.41806773  0.33932324    -0.08100
C977        C  0.85257183  0.41576494  0.38036439    -0.02650
C978        C  0.84091924  0.38220113  0.39678101     0.04170
N979        N  0.83763135  0.37777012  0.43883435     0.66670
H980        H  0.82644568  0.32510643  0.38470740     0.15570
H981        H  0.86513454  0.44405332  0.32680109     0.15280
N982        N  0.85301035  0.39147101  0.27227695     0.74380
O983        O  0.81737114  0.35749944  0.45206808    -0.39070
O984        O  0.85709887  0.38917307  0.46241097    -0.39010
O985        O  0.83173316  0.38700564  0.24928077    -0.39720
O986        O  0.87552417  0.40715477  0.25929438    -0.39790
C987        C  0.85897272  0.15474193  0.36886287    -0.12070
C988        C  0.84681833  0.14955819  0.33098289     0.04940
C989        C  0.83780869  0.11244400  0.31900506    -0.07350
C990        C  0.84115121  0.08184513  0.34533718    -0.08100
C991        C  0.85390635  0.08738664  0.38266876    -0.02650
C992        C  0.86251795  0.12431989  0.39482984     0.04170
N993        N  0.87452013  0.13148844  0.43362644     0.66670
H994        H  0.86530345  0.18303392  0.37888610     0.15570
H995        H  0.83540438  0.05320020  0.33570959     0.15280
N996        N  0.82675409  0.10478472  0.27992719     0.74380
O997        O  0.89248607  0.15825107  0.43903823    -0.39070
O998        O  0.86473907  0.11420661  0.46332420    -0.39010
O999        O  0.84056393  0.11592918  0.25009199    -0.39720
O1000       O  0.80644720  0.08106050  0.27505449    -0.39790
C1001       C  0.93748173  0.39488512  0.02081287    -0.12070
C1002       C  0.91495381  0.41869039  0.03237878     0.04940
C1003       C  0.90033173  0.41091554  0.06797745    -0.07350
C1004       C  0.90734264  0.37870467  0.09001320    -0.08100
C1005       C  0.92833111  0.35342247  0.07684926    -0.02650
C1006       C  0.94442997  0.36222216  0.04266552     0.04170
N1007       N  0.96784868  0.33862774  0.03000769     0.66670
H1008       H  0.94912628  0.40110401  0.49396108     0.15570
H1009       H  0.89514366  0.37225913  0.11636773     0.15280
N1010       N  0.87773654  0.43484400  0.08167163     0.74380
O1011       O  0.97483055  0.33739536  0.99398390    -0.39070
O1012       O  0.98371097  0.32251185  0.05517094    -0.39010
O1013       O  0.85208354  0.42707211  0.07207304    -0.39720
O1014       O  0.88272510  0.45858987  0.10917646    -0.39790
C1015       C  0.93511959  0.10026823  0.02247784    -0.12070
C1016       C  0.91209295  0.07680914  0.03373627     0.04940
C1017       C  0.89661250  0.08581094  0.06842561    -0.07350
C1018       C  0.90336199  0.11944292  0.08936043    -0.08100
C1019       C  0.92511637  0.14411610  0.07657741    -0.02650
C1020       C  0.94192334  0.13410145  0.04329746     0.04170
N1021       N  0.96546879  0.15774169  0.02985915     0.66670
H1022       H  0.94697285  0.09305188  0.99604188     0.15570
H1023       H  0.89102491  0.12699912  0.11529646     0.15280
N1024       N  0.87397435  0.06140848  0.08261432     0.74380
O1025       O  0.97662629  0.15167674  0.99646670    -0.39070
O1026       O  0.97675490  0.18281797  0.05215048    -0.39010
O1027       O  0.87676742  0.02564191  0.08182375    -0.39720
O1028       O  0.85263082  0.07551791  0.10008858    -0.39790
C1029       C  0.68688123  0.60142281  0.02533393    -0.12070
C1030       C  0.66480061  0.57711510  0.03806299     0.04940
C1031       C  0.65049049  0.58535260  0.07384638    -0.07350
C1032       C  0.65671804  0.61974920  0.09379384    -0.08100
C1033       C  0.67707531  0.64562061  0.07919722    -0.02650
C1034       C  0.69338932  0.63579672  0.04531621     0.04170
N1035       N  0.71657153  0.65947217  0.03075122     0.66670
H1036       H  0.69797811  0.59466639  0.49813275     0.15570
H1037       H  0.64516997  0.62685156  0.12054879     0.15280
N1038       N  0.62986484  0.55917530  0.09032590     0.74380
O1039       O  0.73532174  0.64531165  0.00832394    -0.39070
O1040       O  0.71843695  0.69448592  0.03927075    -0.39010
O1041       O  0.63340662  0.52364269  0.08706246    -0.39720
O1042       O  0.61005090  0.57129965  0.11227130    -0.39790
C1043       C  0.65290836  0.87692442  0.08780885    -0.12070
C1044       C  0.67633873  0.85444054  0.07722402     0.04940
C1045       C  0.69501646  0.86676557  0.04679407    -0.07350
C1046       C  0.68804873  0.89987413  0.02566805    -0.08100
C1047       C  0.66324758  0.92069354  0.03420277    -0.02650
C1048       C  0.64630947  0.91021684  0.06708532     0.04170
N1049       N  0.62260441  0.93308125  0.08000992     0.66670
H1050       H  0.63938866  0.86812612  0.11212774     0.15570
H1051       H  0.70130329  0.90832060  0.00097165     0.15280
N1052       N  0.72112415  0.84693426  0.03712499     0.74380
O1053       O  0.60074141  0.91746552  0.09499658    -0.39070
O1054       O  0.62507250  0.96894657  0.08154226    -0.39010
O1055       O  0.72367461  0.81165964  0.04300638    -0.39720
O1056       O  0.74169086  0.86469104  0.02123572    -0.39790
C1057       C  0.63303417  0.60963523  0.36973227    -0.12070
C1058       C  0.61086932  0.58362974  0.37856100     0.04940
C1059       C  0.58365736  0.58827642  0.36031547    -0.07350
C1060       C  0.57926135  0.61910247  0.33461703    -0.08100
C1061       C  0.60121418  0.64585501  0.32754980    -0.02650
C1062       C  0.62866458  0.64038267  0.34438787     0.04170
N1063       N  0.65244709  0.66534948  0.33555478     0.66670
H1064       H  0.65418710  0.60605683  0.38264710     0.15570
H1065       H  0.55811637  0.62334775  0.32186810     0.15280
N1066       N  0.56022623  0.56258909  0.36766269     0.74380
O1067       O  0.67162411  0.67209122  0.36135812    -0.39070
O1068       O  0.65613790  0.67714271  0.30072803    -0.39010
O1069       O  0.54937543  0.56122946  0.40174649    -0.39720
O1070       O  0.54660119  0.54789088  0.33883324    -0.39790
C1071       C  0.59461240  0.88309302  0.39938389    -0.12070
C1072       C  0.60146855  0.91699780  0.37999192     0.04940
C1073       C  0.60067911  0.91829908  0.33805254    -0.07350
C1074       C  0.59429014  0.88443263  0.31685364    -0.08100
C1075       C  0.58912070  0.84984912  0.33638214    -0.02650
C1076       C  0.58814786  0.84964046  0.37823166     0.04170
N1077       N  0.58056820  0.81590604  0.39977170     0.66670
H1078       H  0.59485386  0.88248194  0.43146908     0.15570
H1079       H  0.59470397  0.88462101  0.28480959     0.15280
N1080       N  0.60626719  0.95298500  0.31645460     0.74380
O1081       O  0.59385233  0.80782751  0.43127504    -0.39070
O1082       O  0.55810947  0.79729905  0.39060669    -0.39010
O1083       O  0.61910625  0.98105670  0.33240141    -0.39720
O1084       O  0.59850265  0.95558605  0.28069099    -0.39790
C1085       C  0.66491248  0.38369951  0.31575348    -0.12070
C1086       C  0.67763542  0.35262888  0.33464708     0.04940
C1087       C  0.68555630  0.35574484  0.37498074    -0.07350
C1088       C  0.67827554  0.38866581  0.39622037    -0.08100
C1089       C  0.66370321  0.41875699  0.37816796    -0.02650
C1090       C  0.65766517  0.41700983  0.33685295     0.04170
N1091       N  0.64527903  0.44838329  0.31532546     0.66670
H1092       H  0.65939606  0.38125753  0.28461776     0.15570
H1093       H  0.68351559  0.39053148  0.42749744     0.15280
N1094       N  0.70131958  0.32614855  0.39458017     0.74380
O1095       O  0.64944246  0.45129750  0.27857619    -0.39070
O1096       O  0.62944638  0.47256637  0.33197527    -0.39010
O1097       O  0.72115959  0.30891597  0.37674654    -0.39720
O1098       O  0.69800935  0.32052737  0.43113511    -0.39790
C1099       C  0.64610105  0.08718711  0.34113429    -0.12070
C1100       C  0.66358414  0.07890251  0.37403209     0.04940
C1101       C  0.68745803  0.10281781  0.38266545    -0.07350
C1102       C  0.69154507  0.13615623  0.36072467    -0.08100
C1103       C  0.67328372  0.14526734  0.32908580    -0.02650
C1104       C  0.65070430  0.11995826  0.31827285     0.04170
N1105       N  0.63127566  0.12791847  0.28604596     0.66670
H1106       H  0.62782607  0.06888053  0.33429312     0.15570
H1107       H  0.70924764  0.15518618  0.36837700     0.15280
N1108       N  0.70706951  0.09468248  0.41436075     0.74380
O1109       O  0.61937898  0.10081581  0.26711745    -0.39070
O1110       O  0.62344927  0.16159160  0.27914547    -0.39010
O1111       O  0.72115218  0.06411853  0.41364576    -0.39720
O1112       O  0.71465877  0.12089365  0.43814717    -0.39790
C1113       C  0.59703596  0.34567973  0.03368889    -0.12070
C1114       C  0.59312325  0.34980514  0.07471466     0.04940
C1115       C  0.59294424  0.38700918  0.09147064    -0.07350
C1116       C  0.59682747  0.41872595  0.06675036    -0.08100
C1117       C  0.60141753  0.41408350  0.02605698    -0.02650
C1118       C  0.60129954  0.37718279  0.00922531     0.04170
N1119       N  0.60623433  0.37111211  0.46762192     0.66670
H1120       H  0.59682879  0.31749944  0.02031016     0.15570
H1121       H  0.59803943  0.44707043  0.07973576     0.15280
N1122       N  0.59065858  0.39324600  0.13336518     0.74380
O1123       O  0.61840478  0.34115761  0.45572103    -0.39070
O1124       O  0.59609703  0.39375336  0.44238548    -0.39010
O1125       O  0.60799430  0.37723663  0.15667836    -0.39720
O1126       O  0.57548202  0.42019388  0.14628298    -0.39790
C1127       C  0.62316275  0.13166264  0.08198615    -0.12070
C1128       C  0.59480420  0.14426817  0.08309956     0.04940
C1129       C  0.57294126  0.12306963  0.06323422    -0.07350
C1130       C  0.58073387  0.09113903  0.04027016    -0.08100
C1131       C  0.60952178  0.07982680  0.03725245    -0.02650
C1132       C  0.63066549  0.09905863  0.06049988     0.04170
N1133       N  0.65968579  0.08572828  0.06317920     0.66670
H1134       H  0.63964039  0.14726413  0.09837974     0.15570
H1135       H  0.56437905  0.07617075  0.02309576     0.15280
N1136       N  0.54322079  0.13418159  0.06434723     0.74380
O1137       O  0.68035636  0.10928916  0.06364238    -0.39070
O1138       O  0.66438678  0.05143615  0.07204494    -0.39010
O1139       O  0.53636312  0.16870557  0.06832647    -0.39720
O1140       O  0.52359065  0.10962476  0.05859511    -0.39790
In1141     In  0.58137083  0.24887874  0.63608606     1.36870
C1142       C  0.58909240  0.31441234  0.59796547     0.77780
O1143       O  0.53851149  0.25032258  0.60764905    -0.60660
O1144       O  0.53961376  0.24782722  0.67056563    -0.51570
C1145       C  0.58965615  0.18103128  0.60280765     0.70450
O1146       O  0.60051978  0.21142557  0.58997205    -0.46430
C1147       C  0.62181889  0.25029943  0.69232955     0.75150
O1148       O  0.59354432  0.28204188  0.58297821    -0.58290
O1149       O  0.59544049  0.25221955  0.70040012    -0.48380
O1150       O  0.58067395  0.31342497  0.63336921    -0.54720
C1151       C  0.52451931  0.24911179  0.63934210     0.85330
O1152       O  0.57463953  0.18484175  0.63347895    -0.56620
O1153       O  0.62724146  0.24794641  0.65605273    -0.59910
In1154     In  0.68653606  0.24956074  0.77614479     1.36870
C1155       C  0.67781622  0.18209173  0.80944011     0.77780
O1156       O  0.63984095  0.25275312  0.75891471    -0.60660
O1157       O  0.67089161  0.24791180  0.71330869    -0.51570
C1158       C  0.68032202  0.31622860  0.81289700     0.70450
O1159       O  0.67491263  0.28467573  0.82883141    -0.46430
C1160       C  0.74337587  0.24855904  0.76787784     0.75150
O1161       O  0.67858996  0.21293758  0.82870880    -0.58290
O1162       O  0.72699252  0.25237568  0.73828970    -0.48380
O1163       O  0.68133410  0.18547329  0.77264501    -0.54720
C1164       C  0.64470288  0.25043131  0.72233113     0.85330
O1165       O  0.68798942  0.31398774  0.77723098    -0.56620
O1166       O  0.73068151  0.24503379  0.80029421    -0.59910
In1167     In  0.58288272  0.74815601  0.77350477     1.36870
C1168       C  0.58709044  0.81397355  0.81303214     0.77780
O1169       O  0.62840392  0.75445279  0.75354015    -0.60660
O1170       O  0.59637971  0.74556464  0.70939143    -0.51570
C1171       C  0.59446814  0.68172665  0.80717273     0.70450
O1172       O  0.60454976  0.71319454  0.81912188    -0.46430
C1173       C  0.52614121  0.74695591  0.76796737     0.75150
O1174       O  0.59217664  0.78201313  0.82802093    -0.58290
O1175       O  0.54154172  0.74942473  0.73743053    -0.48380
O1176       O  0.58067046  0.81261544  0.77666023    -0.54720
C1177       C  0.62269101  0.75035478  0.71735331     0.85330
O1178       O  0.57816732  0.68382601  0.77729819    -0.56620
O1179       O  0.53978153  0.74459794  0.80012193    -0.59910
In1180     In  0.68613564  0.75101975  0.63293828     1.36870
C1181       C  0.67975165  0.68291466  0.59912489     0.77780
O1182       O  0.72962715  0.75128169  0.60739746    -0.60660
O1183       O  0.72718503  0.75106394  0.67013420    -0.51570
C1184       C  0.67975496  0.81784268  0.59754510     0.70450
O1185       O  0.67534350  0.78641383  0.58018692    -0.46430
C1186       C  0.64514383  0.75082648  0.68724522     0.75150
O1187       O  0.67235887  0.71335955  0.58251420    -0.58290
O1188       O  0.67145752  0.75396696  0.69597888    -0.48380
O1189       O  0.68927132  0.68693932  0.63396880    -0.54720
C1190       C  0.74293504  0.75107542  0.63987489     0.85330
O1191       O  0.68655656  0.81538013  0.63360948    -0.56620
O1192       O  0.63973716  0.74788427  0.65077313    -0.59910
In1193     In  0.63405082  0.99974522  0.95406581     1.36870
C1194       C  0.61242161  0.94844637  0.90485495     0.77780
O1195       O  0.62732779  0.04111398  0.90543508    -0.60660
O1196       O  0.67023974  0.03069749  0.92443739    -0.51570
C1197       C  0.61755217  0.05069620  0.50726755     0.70450
O1198       O  0.59945901  0.03059777  0.98784617    -0.46430
C1199       C  0.65354647  0.94994156  0.50585986     0.75150
O1200       O  0.59639870  0.96943151  0.92575708    -0.58290
O1201       O  0.67029039  0.96768072  0.98281788    -0.48380
O1202       O  0.63906381  0.95455527  0.90857351    -0.54720
C1203       C  0.65370123  0.04905772  0.90175022     0.85330
O1204       O  0.64336752  0.04489102  0.49823371    -0.56620
O1205       O  0.62733742  0.95784341  0.50175643    -0.59910
In1206     In  0.63393740  0.49893832  0.95655022     1.36870
C1207       C  0.61222652  0.44643926  0.50309326     0.77780
O1208       O  0.62751834  0.45807389  0.90672427    -0.60660
O1209       O  0.67013394  0.46668685  0.92895359    -0.51570
C1210       C  0.61796628  0.55208767  0.90593896     0.70450
O1211       O  0.59968372  0.53125762  0.92335808    -0.46430
C1212       C  0.65431646  0.54710252  0.51050530     0.75150
O1213       O  0.59615200  0.46935845  0.98462765    -0.58290
O1214       O  0.67064765  0.52903437  0.98729357    -0.48380
O1215       O  0.63885428  0.45160381  0.49877381    -0.54720
C1216       C  0.65369960  0.44944187  0.90453462     0.85330
O1217       O  0.64375576  0.54469514  0.91432710    -0.56620
O1218       O  0.62788259  0.53942911  0.50664074    -0.59910
In1219     In  0.93617569  0.24885423  0.63090622     1.36870
C1220       C  0.93078217  0.31634724  0.59662886     0.77780
O1221       O  0.88946093  0.24690769  0.64792176    -0.60660
O1222       O  0.92094516  0.25114992  0.69374091    -0.51570
C1223       C  0.92823325  0.18121517  0.59671542     0.70450
O1224       O  0.92215336  0.21203121  0.57983307    -0.46430
C1225       C  0.99310061  0.24908397  0.63833415     0.75150
O1226       O  0.93026929  0.28534216  0.57758055    -0.58290
O1227       O  0.97717471  0.24760062  0.66838696    -0.48380
O1228       O  0.93306424  0.31296868  0.63364855    -0.54720
C1229       C  0.89461313  0.24904717  0.68458159     0.85330
O1230       O  0.93740719  0.18471536  0.63177631    -0.56620
O1231       O  0.97991980  0.25045801  0.60587600    -0.59910
In1232     In  0.83175173  0.24964277  0.77043442     1.36870
C1233       C  0.83668708  0.31659579  0.80794502     0.77780
O1234       O  0.87752957  0.25267458  0.75083309    -0.60660
O1235       O  0.84544561  0.24586300  0.70629460    -0.51570
C1236       C  0.84241726  0.18426102  0.80688677     0.70450
O1237       O  0.85344454  0.21586127  0.81689205    -0.46430
C1238       C  0.77479041  0.24858180  0.76655965     0.75150
O1239       O  0.83767856  0.28485112  0.82492535    -0.58290
O1240       O  0.78962785  0.25185849  0.73552837    -0.48380
O1241       O  0.83366792  0.31422156  0.77087565    -0.54720
C1242       C  0.87188722  0.24917539  0.71451475     0.85330
O1243       O  0.82666231  0.18567817  0.77637542    -0.56620
O1244       O  0.78907557  0.24554492  0.79803039    -0.59910
In1245     In  0.93803953  0.74849236  0.77266418     1.36870
C1246       C  0.93014405  0.68258974  0.80942003     0.77780
O1247       O  0.89161340  0.74571190  0.75513435    -0.60660
O1248       O  0.92238318  0.75154095  0.70944421    -0.51570
C1249       C  0.92770973  0.81474990  0.80882926     0.70450
O1250       O  0.91866380  0.78281371  0.82001452    -0.46430
C1251       C  0.99476026  0.74728858  0.76773023     0.75150
O1252       O  0.93016806  0.71472328  0.82626280    -0.58290
O1253       O  0.97923024  0.74793287  0.73688202    -0.48380
O1254       O  0.93484866  0.68367306  0.77264863    -0.54720
C1255       C  0.89619009  0.74897490  0.71873660     0.85330
O1256       O  0.94266770  0.81327063  0.77784878    -0.56620
O1257       O  0.98125877  0.74722526  0.79978717    -0.59910
In1258     In  0.83104051  0.75107760  0.63573167     1.36870
C1259       C  0.84238769  0.68638576  0.59733504     0.77780
O1260       O  0.87735411  0.75415534  0.65336271    -0.60660
O1261       O  0.84656626  0.74648234  0.69884579    -0.51570
C1262       C  0.83649994  0.81770447  0.59953651     0.70450
O1263       O  0.83533783  0.78573818  0.58243561    -0.46430
C1264       C  0.77431898  0.75077656  0.64060813     0.75150
O1265       O  0.85272062  0.71842860  0.58870842    -0.58290
O1266       O  0.78976872  0.75187647  0.67158667    -0.48380
O1267       O  0.82629932  0.68691378  0.62727660    -0.54720
C1268       C  0.87275298  0.74984767  0.68965223     0.85330
O1269       O  0.83454976  0.81605434  0.63674541    -0.56620
O1270       O  0.78791341  0.74946195  0.60867332    -0.59910
In1271     In  0.88163444  0.99941818  0.95156955     1.36870
C1272       C  0.90193559  0.04704433  0.50563419     0.77780
O1273       O  0.88914144  0.04859759  0.91273562    -0.60660
O1274       O  0.84554577  0.03085850  0.92159657    -0.51570
C1275       C  0.89706642  0.95068708  0.89575038     0.70450
O1276       O  0.91559220  0.97018345  0.91505592    -0.46430
C1277       C  0.86480433  0.94707127  0.50224733     0.75150
O1278       O  0.91844885  0.02944163  0.98210714    -0.58290
O1279       O  0.84695952  0.96875836  0.98526265    -0.48380
O1280       O  0.87552549  0.03918202  0.50169891    -0.54720
C1281       C  0.86287378  0.05431618  0.90591077     0.85330
O1282       O  0.87123774  0.95754794  0.90417256    -0.56620
O1283       O  0.89086310  0.95305355  0.99395318    -0.59910
In1284     In  0.88463827  0.49891519  0.95461422     1.36870
C1285       C  0.90519727  0.44898506  0.50532095     0.77780
O1286       O  0.89537857  0.54403045  0.99825729    -0.60660
O1287       O  0.85088722  0.53059154  0.98865895    -0.51570
C1288       C  0.89967376  0.55185764  0.90380715     0.70450
O1289       O  0.91835654  0.53267420  0.92237228    -0.46430
C1290       C  0.86310155  0.44725397  0.90565551     0.75150
O1291       O  0.92119364  0.46473173  0.97980558    -0.58290
O1292       O  0.84745978  0.46463763  0.93036350    -0.48380
O1293       O  0.87945807  0.45976904  0.50487167    -0.54720
C1294       C  0.86953932  0.55127716  0.50639405     0.85330
O1295       O  0.87389889  0.54189027  0.90944433    -0.56620
O1296       O  0.88914362  0.45752479  0.90519533    -0.59910
C1297       C  0.87727185  0.61790861  0.52513162    -0.12070
C1298       C  0.86233671  0.58389832  0.53213603     0.04940
C1299       C  0.84069838  0.58304752  0.56132768    -0.07350
C1300       C  0.83449028  0.61694579  0.58228707    -0.08100
C1301       C  0.84889463  0.65144419  0.57408399    -0.02650
C1302       C  0.87002047  0.65181067  0.54420751     0.04170
N1303       N  0.88360890  0.68642464  0.53151827     0.66670
H1304       H  0.89391224  0.61856732  0.50292789     0.15570
H1305       H  0.81844858  0.61635094  0.60531725     0.15280
N1306       N  0.82585990  0.54822736  0.57129540     0.74380
O1307       O  0.91065040  0.68842633  0.52987233    -0.39070
O1308       O  0.86887943  0.71112667  0.51375742    -0.39010
O1309       O  0.83829158  0.51650851  0.56846311    -0.39720
O1310       O  0.80139970  0.54939274  0.58712247    -0.39790
C1311       C  0.84652537  0.92154256  0.56647246    -0.12070
C1312       C  0.85615665  0.91514598  0.52769576     0.04940
C1313       C  0.85811202  0.87758939  0.51336361    -0.07350
C1314       C  0.85009535  0.84734585  0.53721749    -0.08100
C1315       C  0.84123294  0.85290464  0.57633990    -0.02650
C1316       C  0.83916353  0.89072229  0.59128503     0.04170
N1317       N  0.82954617  0.89851696  0.63079074     0.66670
H1318       H  0.84492712  0.95053758  0.57750887     0.15570
H1319       H  0.85229255  0.81878252  0.52520017     0.15280
N1320       N  0.86896474  0.86920317  0.97486040     0.74380
O1321       O  0.84080633  0.92553150  0.65057154    -0.39070
O1322       O  0.80701935  0.88269304  0.64352914    -0.39010
O1323       O  0.89459732  0.87808597  0.96693557    -0.39720
O1324       O  0.85610979  0.84457094  0.95361445    -0.39790
C1325       C  0.90599280  0.65241086  0.86518703    -0.12070
C1326       C  0.92339395  0.64763171  0.83191600     0.04940
C1327       C  0.93285856  0.61058079  0.82174147    -0.07350
C1328       C  0.92463706  0.57955240  0.84560842    -0.08100
C1329       C  0.90702855  0.58472344  0.87878054    -0.02650
C1330       C  0.89739704  0.62173653  0.88844227     0.04170
N1331       N  0.87981328  0.62944172  0.92236641     0.66670
H1332       H  0.89829006  0.68057538  0.87285737     0.15570
H1333       H  0.93223785  0.55121341  0.83850384     0.15280
N1334       N  0.95136514  0.60394895  0.78857447     0.74380
O1335       O  0.88337554  0.66030010  0.94135381    -0.39070
O1336       O  0.85725311  0.61019095  0.92822190    -0.39010
O1337       O  0.97253466  0.62579730  0.78242553    -0.39720
O1338       O  0.94906485  0.57334587  0.76881682    -0.39790
C1339       C  0.93327289  0.88558814  0.81996816    -0.12070
C1340       C  0.92041943  0.85050429  0.83020515     0.04940
C1341       C  0.89926825  0.85015768  0.85992293    -0.07350
C1342       C  0.89021209  0.88432416  0.87652564    -0.08100
C1343       C  0.90439353  0.91870206  0.86907690    -0.02650
C1344       C  0.92591045  0.91991694  0.83966947     0.04170
N1345       N  0.93914133  0.95538491  0.82796842     0.66670
H1346       H  0.94909697  0.88616968  0.79666798     0.15570
H1347       H  0.87296483  0.88369721  0.89755735     0.15280
N1348       N  0.88781221  0.81531147  0.87538414     0.74380
O1349       O  0.96203713  0.95529338  0.80817586    -0.39070
O1350       O  0.92650414  0.98665995  0.83342320    -0.39010
O1351       O  0.90368008  0.79434345  0.89626077    -0.39720
O1352       O  0.86105890  0.80926247  0.87473576    -0.39790
C1353       C  0.83427168  0.35132556  0.87169373    -0.12070
C1354       C  0.83923693  0.35280575  0.83073140     0.04940
C1355       C  0.84926974  0.38731283  0.81413123    -0.07350
C1356       C  0.85644406  0.41806773  0.83932326    -0.08100
C1357       C  0.85257186  0.41576495  0.88036441    -0.02650
C1358       C  0.84091927  0.38220114  0.89678103     0.04170
N1359       N  0.83763137  0.37777013  0.93883437     0.66670
H1360       H  0.82644570  0.32510644  0.88470741     0.15570
H1361       H  0.86513457  0.44405332  0.82680111     0.15280
N1362       N  0.85301039  0.39147101  0.77227696     0.74380
O1363       O  0.81737117  0.35749945  0.95206809    -0.39070
O1364       O  0.85709889  0.38917308  0.96241098    -0.39010
O1365       O  0.83173320  0.38700565  0.74928078    -0.39720
O1366       O  0.87552421  0.40715475  0.75929440    -0.39790
C1367       C  0.85897269  0.15474193  0.86886288    -0.12070
C1368       C  0.84681831  0.14955819  0.83098290     0.04940
C1369       C  0.83780868  0.11244400  0.81900505    -0.07350
C1370       C  0.84115122  0.08184512  0.84533716    -0.08100
C1371       C  0.85390637  0.08738663  0.88266873    -0.02650
C1372       C  0.86251794  0.12431988  0.89482983     0.04170
N1373       N  0.87452011  0.13148842  0.93362644     0.66670
H1374       H  0.86530340  0.18303392  0.87888612     0.15570
H1375       H  0.83540440  0.05320019  0.83570955     0.15280
N1376       N  0.82675409  0.10478473  0.77992718     0.74380
O1377       O  0.89248605  0.15825106  0.93903824    -0.39070
O1378       O  0.86473906  0.11420658  0.96332419    -0.39010
O1379       O  0.84056392  0.11592919  0.75009199    -0.39720
O1380       O  0.80644720  0.08106049  0.77505448    -0.39790
C1381       C  0.93748171  0.39488513  0.52081286    -0.12070
C1382       C  0.91495379  0.41869038  0.53237877     0.04940
C1383       C  0.90033171  0.41091553  0.56797744    -0.07350
C1384       C  0.90734263  0.37870468  0.59001320    -0.08100
C1385       C  0.92833111  0.35342248  0.57684926    -0.02650
C1386       C  0.94442996  0.36222217  0.54266552     0.04170
N1387       N  0.96784868  0.33862776  0.53000770     0.66670
H1388       H  0.94912629  0.40110400  0.99396108     0.15570
H1389       H  0.89514365  0.37225914  0.61636773     0.15280
N1390       N  0.87773651  0.43484398  0.58167161     0.74380
O1391       O  0.97483056  0.33739538  0.49398391    -0.39070
O1392       O  0.98371097  0.32251187  0.55517095    -0.39010
O1393       O  0.85208351  0.42707209  0.57207300    -0.39720
O1394       O  0.88272505  0.45858984  0.60917646    -0.39790
C1395       C  0.93511953  0.10026825  0.52247786    -0.12070
C1396       C  0.91209290  0.07680916  0.53373633     0.04940
C1397       C  0.89661248  0.08581097  0.56842570    -0.07350
C1398       C  0.90336199  0.11944295  0.58936050    -0.08100
C1399       C  0.92511636  0.14411613  0.57657744    -0.02650
C1400       C  0.94192331  0.13410147  0.54329747     0.04170
N1401       N  0.96546875  0.15774169  0.52985913     0.66670
H1402       H  0.94697278  0.09305188  0.49604188     0.15570
H1403       H  0.89102494  0.12699916  0.61529655     0.15280
N1404       N  0.87397434  0.06140852  0.58261444     0.74380
O1405       O  0.97662625  0.15167671  0.49646669    -0.39070
O1406       O  0.97675487  0.18281800  0.55215043    -0.39010
O1407       O  0.87676741  0.02564194  0.58182389    -0.39720
O1408       O  0.85263082  0.07551796  0.60008869    -0.39790
C1409       C  0.68688124  0.60142280  0.52533393    -0.12070
C1410       C  0.66480062  0.57711509  0.53806299     0.04940
C1411       C  0.65049050  0.58535259  0.57384638    -0.07350
C1412       C  0.65671804  0.61974920  0.59379383    -0.08100
C1413       C  0.67707531  0.64562061  0.57919720    -0.02650
C1414       C  0.69338932  0.63579671  0.54531620     0.04170
N1415       N  0.71657153  0.65947216  0.53075121     0.66670
H1416       H  0.69797810  0.59466640  0.99813274     0.15570
H1417       H  0.64516997  0.62685156  0.62054878     0.15280
N1418       N  0.62986485  0.55917529  0.59032590     0.74380
O1419       O  0.73532179  0.64531162  0.50832403    -0.39070
O1420       O  0.71843688  0.69448595  0.53927062    -0.39010
O1421       O  0.63340662  0.52364268  0.58706246    -0.39720
O1422       O  0.61005091  0.57129964  0.61227130    -0.39790
C1423       C  0.65290836  0.87692441  0.58780884    -0.12070
C1424       C  0.67633874  0.85444054  0.57722400     0.04940
C1425       C  0.69501646  0.86676558  0.54679405    -0.07350
C1426       C  0.68804873  0.89987414  0.52566805    -0.08100
C1427       C  0.66324758  0.92069354  0.53420276    -0.02650
C1428       C  0.64630946  0.91021683  0.56708532     0.04170
N1429       N  0.62260440  0.93308124  0.58000991     0.66670
H1430       H  0.63938865  0.86812610  0.61212772     0.15570
H1431       H  0.70130329  0.90832061  0.50097165     0.15280
N1432       N  0.72112416  0.84693427  0.53712498     0.74380
O1433       O  0.60074140  0.91746549  0.59499656    -0.39070
O1434       O  0.62507249  0.96894655  0.58154226    -0.39010
O1435       O  0.72367459  0.81165964  0.54300628    -0.39720
O1436       O  0.74169088  0.86469107  0.52123577    -0.39790
C1437       C  0.63303422  0.60963517  0.86973226    -0.12070
C1438       C  0.61086935  0.58362971  0.87856100     0.04940
C1439       C  0.58365739  0.58827643  0.86031548    -0.07350
C1440       C  0.57926140  0.61910248  0.83461704    -0.08100
C1441       C  0.60121425  0.64585499  0.82754980    -0.02650
C1442       C  0.62866465  0.64038261  0.84438785     0.04170
N1443       N  0.65244718  0.66534939  0.83555474     0.66670
H1444       H  0.65418716  0.60605675  0.88264707     0.15570
H1445       H  0.55811643  0.62334779  0.82186811     0.15280
N1446       N  0.56022625  0.56258913  0.86766271     0.74380
O1447       O  0.67162420  0.67209113  0.86135808    -0.39070
O1448       O  0.65613799  0.67714260  0.80072798    -0.39010
O1449       O  0.54937545  0.56122951  0.90174652    -0.39720
O1450       O  0.54660119  0.54789092  0.83883326    -0.39790
C1451       C  0.59461237  0.88309303  0.89938389    -0.12070
C1452       C  0.60146854  0.91699781  0.87999191     0.04940
C1453       C  0.60067912  0.91829907  0.83805253    -0.07350
C1454       C  0.59429015  0.88443262  0.81685364    -0.08100
C1455       C  0.58912069  0.84984912  0.83638214    -0.02650
C1456       C  0.58814784  0.84964047  0.87823166     0.04170
N1457       N  0.58056816  0.81590606  0.89977170     0.66670
H1458       H  0.59485381  0.88248196  0.93146907     0.15570
H1459       H  0.59470400  0.88462100  0.78480959     0.15280
N1460       N  0.60626723  0.95298499  0.81645459     0.74380
O1461       O  0.59385226  0.80782754  0.93127505    -0.39070
O1462       O  0.55810944  0.79729906  0.89060665    -0.39010
O1463       O  0.61910627  0.98105669  0.83240141    -0.39720
O1464       O  0.59850272  0.95558603  0.78069096    -0.39790
C1465       C  0.66491247  0.38369951  0.81575347    -0.12070
C1466       C  0.67763541  0.35262889  0.83464706     0.04940
C1467       C  0.68555630  0.35574485  0.87498072    -0.07350
C1468       C  0.67827555  0.38866582  0.89622036    -0.08100
C1469       C  0.66370320  0.41875699  0.87816795    -0.02650
C1470       C  0.65766515  0.41700983  0.83685295     0.04170
N1471       N  0.64527900  0.44838329  0.81532546     0.66670
H1472       H  0.65939603  0.38125753  0.78461775     0.15570
H1473       H  0.68351561  0.39053149  0.92749742     0.15280
N1474       N  0.70131960  0.32614857  0.89458015     0.74380
O1475       O  0.64944242  0.45129749  0.77857619    -0.39070
O1476       O  0.62944635  0.47256637  0.83197528    -0.39010
O1477       O  0.72115961  0.30891599  0.87674650    -0.39720
O1478       O  0.69800938  0.32052739  0.93113508    -0.39790
C1479       C  0.64610106  0.08718711  0.84113429    -0.12070
C1480       C  0.66358414  0.07890252  0.87403210     0.04940
C1481       C  0.68745803  0.10281783  0.88266547    -0.07350
C1482       C  0.69154507  0.13615625  0.86072469    -0.08100
C1483       C  0.67328373  0.14526735  0.82908580    -0.02650
C1484       C  0.65070431  0.11995826  0.81827285     0.04170
N1485       N  0.63127568  0.12791846  0.78604595     0.66670
H1486       H  0.62782609  0.06888052  0.83429311     0.15570
H1487       H  0.70924763  0.15518620  0.86837702     0.15280
N1488       N  0.70706949  0.09468251  0.91436079     0.74380
O1489       O  0.61937900  0.10081580  0.76711744    -0.39070
O1490       O  0.62344928  0.16159159  0.77914546    -0.39010
O1491       O  0.72115218  0.06411857  0.91364581    -0.39720
O1492       O  0.71465873  0.12089368  0.93814721    -0.39790
C1493       C  0.59703597  0.34567973  0.53368889    -0.12070
C1494       C  0.59312327  0.34980514  0.57471466     0.04940
C1495       C  0.59294425  0.38700918  0.59147064    -0.07350
C1496       C  0.59682748  0.41872595  0.56675036    -0.08100
C1497       C  0.60141754  0.41408350  0.52605698    -0.02650
C1498       C  0.60129955  0.37718279  0.50922531     0.04170
N1499       N  0.60623433  0.37111211  0.96762192     0.66670
H1500       H  0.59682880  0.31749944  0.52031016     0.15570
H1501       H  0.59803944  0.44707042  0.57973576     0.15280
N1502       N  0.59065859  0.39324599  0.63336518     0.74380
O1503       O  0.61840477  0.34115761  0.95572103    -0.39070
O1504       O  0.59609702  0.39375336  0.94238548    -0.39010
O1505       O  0.60799431  0.37723662  0.65667836    -0.39720
O1506       O  0.57548205  0.42019389  0.64628299    -0.39790
C1507       C  0.62316273  0.13166261  0.58198617    -0.12070
C1508       C  0.59480418  0.14426816  0.58309956     0.04940
C1509       C  0.57294125  0.12306963  0.56323422    -0.07350
C1510       C  0.58073385  0.09113903  0.54027016    -0.08100
C1511       C  0.60952176  0.07982679  0.53725245    -0.02650
C1512       C  0.63066548  0.09905861  0.56049990     0.04170
N1513       N  0.65968577  0.08572824  0.56317923     0.66670
H1514       H  0.63964037  0.14726410  0.59837977     0.15570
H1515       H  0.56437904  0.07617075  0.52309574     0.15280
N1516       N  0.54322078  0.13418159  0.56434722     0.74380
O1517       O  0.68035635  0.10928912  0.56364244    -0.39070
O1518       O  0.66438675  0.05143611  0.57204496    -0.39010
O1519       O  0.53636311  0.16870556  0.56832650    -0.39720
O1520       O  0.52359064  0.10962476  0.55859507    -0.39790
loop_ 
_geom_bond_atom_site_label_1 
_geom_bond_atom_site_label_2 
_geom_bond_distance 
_geom_bond_site_symmetry_2 
_ccdc_geom_bond_type 
In1           O3   2.210       .  S
In1           O4   2.274       .  S
In1          O12   2.266       .  S
In1           O6   2.227       .  S
In1           O8   2.221       .  S
In1           O9   2.267       .  S
In1          O10   2.267       .  S
In1          O13   2.236       .  S
C2            O8   1.259       .  A
C2           O10   1.262       .  A
C2          C354   1.486       .  S
O3           C11   1.258       .  A
O4           C11   1.265       .  A
C5           O12   1.261       .  A
C5            O6   1.257       .  A
C5          C368   1.469       .  S
C7            O9   1.262       .  A
C7           O13   1.255       .  A
C7           C24   1.465       .  S
C11         C845   1.463   1_455  S
In14         O16   2.251       .  S
In14         O17   2.239       .  S
In14         O25   2.260       .  S
In14         O19   2.229       .  S
In14         O21   2.231       .  S
In14         O22   2.287       .  S
In14         O23   2.261       .  S
In14         O26   2.213       .  S
C15          O21   1.258       .  A
C15          O23   1.262       .  A
C15         C343   1.471       .  S
O16          C24   1.260       .  A
O17          C24   1.263       .  A
C18          O25   1.261       .  A
C18          O19   1.259       .  A
C18         C326   1.475       .  S
C20          O22   1.262       .  A
C20          O26   1.255       .  A
C20          C98   1.464       .  S
In27         O29   2.239       .  S
In27         O30   2.261       .  S
In27         O38   2.270       .  S
In27         O32   2.220       .  S
In27         O34   2.221       .  S
In27         O35   2.272       .  S
In27         O36   2.266       .  S
In27         O39   2.208       .  S
C28          O34   1.258       .  A
C28          O36   1.263       .  A
C28         C315   1.482       .  S
O29          C37   1.256       .  A
O30          C37   1.262       .  A
C31          O38   1.261       .  A
C31          O32   1.258       .  A
C31         C301   1.475       .  S
C33          O35   1.264       .  A
C33          O39   1.258       .  A
C33         C871   1.461   1_455  S
C37          C46   1.464       .  S
In40         O42   2.207       .  S
In40         O43   2.280       .  S
In40         O51   2.258       .  S
In40         O45   2.237       .  S
In40         O47   2.234       .  S
In40         O48   2.244       .  S
In40         O49   2.255       .  S
In40         O52   2.249       .  S
C41          O47   1.260       .  A
C41          O49   1.261       .  A
C41         C273   1.470       .  S
O42          C50   1.256       .  A
O43          C50   1.263       .  A
C44          O51   1.261       .  A
C44          O45   1.259       .  A
C44         C284   1.470       .  S
C46          O48   1.262       .  A
C46          O52   1.259       .  A
C50         C124   1.461       .  S
In53         O55   2.223   1_565  S
In53         O56   2.242   1_565  S
In53         O58   2.260   1_565  S
In53         O60   2.245       .  S
In53         O61   2.255       .  S
In53         O62   2.214       .  S
In53        O444   2.205   1_565  S
In53        O445   2.212       .  S
C54          O60   1.268       .  A
C54          O62   1.262       .  A
C54         C312   1.466       .  S
O55          C63   1.264       .  A
O56          C63   1.267       .  A
C57          O64   1.260   1_554  A
C57         O438   1.269   1_554  A
C57         C371   1.485       .  S
O58         C437   1.269       .  A
C59          O65   1.261       .  A
C59         O441   1.268   1_554  A
C59         C287   1.481       .  S
O61         C439   1.268       .  A
C63         C340   1.483       .  S
O64        In433   2.205   1_545  S
O65        In433   2.212   1_554  S
In66         O68   2.219       .  S
In66         O69   2.243       .  S
In66         O77   2.203       .  S
In66         O71   2.262       .  S
In66         O73   2.254       .  S
In66         O74   2.244       .  S
In66        O455   2.210       .  S
In66        O458   2.222       .  S
C67          O75   1.261   1_554  A
C67         O453   1.268   1_554  A
C67         C357   1.467       .  S
O68          C76   1.261       .  A
O69          C76   1.267       .  A
C70          O77   1.262       .  A
C70          O71   1.268       .  A
C70         C298   1.486       .  S
C72          O78   1.263       .  A
C72         O454   1.267   1_554  A
C72         C270   1.477       .  S
O73         C447   1.268       .  A
O74         C452   1.267       .  A
O75        In446   2.210       .  S
C76         C329   1.473       .  S
O78        In446   2.222   1_554  S
In79         O81   2.255       .  S
In79         O82   2.244       .  S
In79         O90   2.252       .  S
In79         O84   2.237       .  S
In79         O86   2.235       .  S
In79         O87   2.284       .  S
In79         O88   2.256       .  S
In79         O91   2.212       .  S
C80          O86   1.259       .  A
C80          O88   1.261       .  A
C80         C245   1.472       .  S
O81          C89   1.261       .  A
O82          C89   1.264       .  A
C83          O90   1.261       .  A
C83          O84   1.260       .  A
C83         C259   1.469       .  S
C85          O87   1.263       .  A
C85          O91   1.254       .  A
C85         C771   1.463       .  S
C89         C102   1.469       .  S
In92         O94   2.239       .  S
In92         O95   2.267       .  S
In92        O103   2.265       .  S
In92         O97   2.218       .  S
In92         O99   2.223       .  S
In92        O100   2.283       .  S
In92        O101   2.266       .  S
In92        O104   2.205       .  S
C93          O99   1.258       .  A
C93         O101   1.261       .  A
C93         C214   1.483       .  S
O94         C102   1.258       .  A
O95         C102   1.264       .  A
C96         O103   1.262       .  A
C96          O97   1.260       .  A
C96         C228   1.485       .  S
C98         O100   1.265       .  A
C98         O104   1.256       .  A
In105       O107   2.238       .  S
In105       O108   2.256       .  S
In105       O116   2.286       .  S
In105       O110   2.199       .  S
In105       O112   2.203       .  S
In105       O113   2.275       .  S
In105       O114   2.277       .  S
In105       O117   2.206       .  S
C106        O112   1.259       .  A
C106        O114   1.264       .  A
C106        C186   1.480       .  S
O107        C115   1.256       .  A
O108        C115   1.264       .  A
C109        O116   1.263       .  A
C109        O110   1.255       .  A
C109        C200   1.486       .  S
C111        O113   1.265       .  A
C111        O117   1.256       .  A
C111        C793   1.461       .  S
C115        C128   1.464       .  S
In118       O120   2.234       .  S
In118       O121   2.254       .  S
In118       O129   2.284       .  S
In118       O123   2.190       .  S
In118       O125   2.207       .  S
In118       O126   2.280       .  S
In118       O127   2.275       .  S
In118       O130   2.200       .  S
C119        O125   1.256       .  A
C119        O127   1.263       .  A
C119        C161   1.485       .  S
O120        C128   1.256       .  A
O121        C128   1.265       .  A
C122        O129   1.263       .  A
C122        O123   1.258       .  A
C122        C175   1.483       .  S
C124        O126   1.266       .  A
C124        O130   1.256       .  A
In131       O133   2.203   1_565  S
In131       O134   2.257   1_565  S
In131       O142   2.212       .  S
In131       O136   2.261       .  S
In131       O138   2.244   1_565  S
In131       O139   2.253       .  S
In131       O143   2.219       .  S
In131       O520   2.207   1_565  S
C132        O140   1.264       .  A
C132        O518   1.271   1_554  A
C132        C256   1.478       .  S
O133        C141   1.261       .  A
O134        C141   1.269       .  A
C135        O142   1.263       .  A
C135        O136   1.269       .  A
C135        C203   1.477       .  S
C137        O519   1.269   1_554  A
C137        O523   1.263   1_554  A
C137        C172   1.472       .  S
O138        C512   1.271       .  A
O139        C517   1.269       .  A
O140       In511   2.207   1_544  S
C141        C231   1.468       .  S
O143        C517   1.263       .  A
In144       O146   2.206       .  S
In144       O147   2.251       .  S
In144       O155   2.212       .  S
In144       O149   2.251       .  S
In144       O151   2.257       .  S
In144       O152   2.244       .  S
In144       O156   2.216       .  S
In144       O533   2.206       .  S
C145        O153   1.260       .  A
C145        O531   1.270   1_554  A
C145        C242   1.480       .  S
O146        C534   1.264       .  A
O147        C534   1.270       .  A
C148        O155   1.263       .  A
C148        O149   1.270       .  A
C148        C189   1.475       .  S
C150        O152   1.268       .  A
C150        O156   1.262       .  A
C150        C217   1.469       .  S
O151        C525   1.270       .  A
O153       In524   2.206   1_554  S
C154        O526   1.264   1_554  A
C154        O527   1.270   1_554  A
C154        C158   1.474       .  S
C157        C158   1.398       .  A
C157        C162   1.394       .  A
C157        H164   1.083       .  S
C158        C159   1.415       .  A
C159        C160   1.412       .  A
C159        N166   1.441       .  S
C160        C161   1.409       .  A
C160        H165   1.083       .  S
C161        C162   1.415       .  A
C162        N163   1.434       .  S
N163        O167   1.262       .  A
N163        O168   1.263       .  A
N166        O169   1.262       .  A
N166        O170   1.263       .  A
C171        C172   1.405       .  A
C171        C176   1.415       .  A
C171        H178   1.084       .  S
C172        C173   1.404       .  A
C173        C174   1.388       .  A
C173        N560   1.429   1_554  S
C174        C175   1.400       .  A
C174        H179   1.084       .  S
C175        C176   1.420       .  A
C176        N177   1.436       .  S
N177        O181   1.263       .  A
N177        O182   1.262       .  A
N180        C553   1.429       .  S
N180        O183   1.262       .  A
N180        O184   1.262       .  A
C185        C186   1.400       .  A
C185        C190   1.395       .  A
C185        H192   1.084       .  S
C186        C187   1.417       .  A
C187        C188   1.412       .  A
C187        N194   1.438       .  S
C188        C189   1.405       .  A
C188        H193   1.084       .  S
C189        C190   1.414       .  A
C190        N191   1.439       .  S
N191        O195   1.263       .  A
N191        O196   1.261       .  A
N194        O197   1.262       .  A
N194        O198   1.263       .  A
C199        C200   1.410       .  A
C199        C204   1.417       .  A
C199        H206   1.082       .  S
C200        C201   1.412       .  A
C201        C202   1.390       .  A
C201        N208   1.433       .  S
C202        C203   1.395       .  A
C202        H207   1.076       .  S
C203        C204   1.417       .  A
C204        N205   1.443       .  S
N205        O209   1.263       .  A
N205        O210   1.263       .  A
N208        O211   1.263       .  A
N208        O212   1.262       .  A
C213        C214   1.406       .  A
C213        C218   1.401       .  A
C213        H220   1.084       .  S
C214        C215   1.415       .  A
C215        C216   1.405       .  A
C215        N222   1.435       .  S
C216        C217   1.403       .  A
C216        H221   1.084       .  S
C217        C218   1.411       .  A
C218        N219   1.440       .  S
N219        O223   1.263       .  A
N219        O224   1.262       .  A
N222        O225   1.262       .  A
N222        O226   1.262       .  A
C227        C228   1.405       .  A
C227        C232   1.397       .  A
C227        H234   1.084       .  S
C228        C229   1.419       .  A
C229        C230   1.409       .  A
C229        N236   1.436       .  S
C230        C231   1.401       .  A
C230        H235   1.084       .  S
C231        C232   1.410       .  A
C232        N233   1.440       .  S
N233        O237   1.263       .  A
N233        O238   1.262       .  A
N236        O239   1.262       .  A
N236        O240   1.263       .  A
C241        C242   1.403       .  A
C241        C246   1.407       .  A
C241        H628   1.083   1_554  S
C242        C243   1.414       .  A
C243        C244   1.398       .  A
C243        N250   1.429       .  S
C244        C245   1.399       .  A
C244        H249   1.084       .  S
C245        C246   1.416       .  A
C246        N247   1.441       .  S
N247        O251   1.263   1_554  A
N247        O252   1.263       .  A
H248        C621   1.083       .  S
N250        O253   1.262       .  A
N250        O254   1.262       .  A
C255        C256   1.402       .  A
C255        C260   1.407       .  A
C255        H262   1.083   1_554  S
C256        C257   1.416       .  A
C257        C258   1.402       .  A
C257        N264   1.439       .  S
C258        C259   1.399       .  A
C258        H263   1.084       .  S
C259        C260   1.418       .  A
C260        N261   1.446       .  S
N261        O265   1.263   1_554  A
N261        O266   1.262       .  A
N264        O267   1.263       .  A
N264        O268   1.263       .  A
C269        C270   1.402       .  A
C269        C274   1.407       .  A
C269        H656   1.083   1_554  S
C270        C271   1.414       .  A
C271        C272   1.404       .  A
C271        N278   1.441       .  S
C272        C273   1.401       .  A
C272        H277   1.084       .  S
C273        C274   1.420       .  A
C274        N275   1.447       .  S
N275        O279   1.263       .  A
N275        O280   1.261       .  A
H276        C649   1.083       .  S
N278        O281   1.263       .  A
N278        O282   1.263       .  A
C283        C284   1.399       .  A
C283        C288   1.402       .  A
C283        H290   1.084       .  S
C284        C285   1.419       .  A
C285        C286   1.407       .  A
C285        N292   1.445       .  S
C286        C287   1.403       .  A
C286        H291   1.083       .  S
C287        C288   1.416       .  A
C288        N289   1.439       .  S
N289        O293   1.263       .  A
N289        O294   1.263       .  A
N292        O295   1.261       .  A
N292        O296   1.263       .  A
C297        C298   1.406       .  A
C297        C302   1.398       .  A
C297        H304   1.083       .  S
C298        C299   1.416       .  A
C299        C300   1.408       .  A
C299        N306   1.433       .  S
C300        C301   1.404       .  A
C300        H305   1.084       .  S
C301        C302   1.411       .  A
C302        N303   1.440       .  S
N303        O307   1.263       .  A
N303        O308   1.263       .  A
N306        O309   1.262       .  A
N306        O310   1.262       .  A
C311        C312   1.398       .  A
C311        C316   1.398       .  A
C311        H318   1.084       .  S
C312        C313   1.418       .  A
C313        C314   1.410       .  A
C313        N320   1.446       .  S
C314        C315   1.405       .  A
C314        H319   1.083       .  S
C315        C316   1.415       .  A
C316        N317   1.437       .  S
N317        O321   1.263       .  A
N317        O322   1.263       .  A
N320        O323   1.262       .  A
N320        O324   1.263       .  A
C325        C326   1.402       .  A
C325        C330   1.409       .  A
C325        H332   1.084       .  S
C326        C327   1.412       .  A
C327        C328   1.400       .  A
C327        N334   1.440       .  S
C328        C329   1.402       .  A
C328        H333   1.084       .  S
C329        C330   1.423       .  A
C330        N331   1.446       .  S
N331        O335   1.263       .  A
N331        O336   1.261       .  A
N334        O337   1.263       .  A
N334        O338   1.263       .  A
C339        C340   1.407       .  A
C339        C344   1.406       .  A
C339        H346   1.084       .  S
C340        C341   1.414       .  A
C341        C342   1.402       .  A
C341        N348   1.434       .  S
C342        C343   1.402       .  A
C342        H347   1.084       .  S
C343        C344   1.414       .  A
C344        N345   1.441       .  S
N345        O349   1.263       .  A
N345        O350   1.262       .  A
N348        O351   1.262       .  A
N348        O352   1.262       .  A
C353        C354   1.406       .  A
C353        C358   1.399       .  A
C353        H360   1.084       .  S
C354        C355   1.418       .  A
C355        C356   1.408       .  A
C355        N362   1.435       .  S
C356        C357   1.401       .  A
C356        H361   1.084       .  S
C357        C358   1.410       .  A
C358        N739   1.440   1_554  S
N359        C738   1.440       .  S
N359        O363   1.263       .  A
N359        O364   1.262       .  A
N362        O365   1.262       .  A
N362        O366   1.263       .  A
C367        C368   1.397       .  A
C367        C372   1.398       .  A
C367        H374   1.084       .  S
C368        C369   1.417       .  A
C369        C370   1.409       .  A
C369        N376   1.442       .  S
C370        C371   1.406       .  A
C370        H375   1.083       .  S
C371        C372   1.417       .  A
C372        N373   1.437       .  S
N373        O377   1.263       .  A
N373        O378   1.263       .  A
N376        O379   1.262       .  A
N376        O380   1.263       .  A
In381       O383   2.210       .  S
In381       O384   2.274       .  S
In381       O392   2.266       .  S
In381       O386   2.227       .  S
In381       O388   2.221       .  S
In381       O389   2.267       .  S
In381       O390   2.267       .  S
In381       O393   2.236       .  S
C382        O388   1.259       .  A
C382        O390   1.262       .  A
C382        C734   1.486       .  S
O383        C391   1.258       .  A
O384        C391   1.265       .  A
C385        O392   1.261       .  A
C385        O386   1.257       .  A
C385        C748   1.469       .  S
C387        O389   1.262       .  A
C387        O393   1.255       .  A
C387        C404   1.465       .  S
C391       C1225   1.463   1_455  S
In394       O396   2.251       .  S
In394       O397   2.239       .  S
In394       O405   2.260       .  S
In394       O399   2.229       .  S
In394       O401   2.231       .  S
In394       O402   2.287       .  S
In394       O403   2.261       .  S
In394       O406   2.213       .  S
C395        O401   1.258       .  A
C395        O403   1.262       .  A
C395        C723   1.471       .  S
O396        C404   1.260       .  A
O397        C404   1.263       .  A
C398        O405   1.261       .  A
C398        O399   1.259       .  A
C398        C706   1.475       .  S
C400        O402   1.262       .  A
C400        O406   1.255       .  A
C400        C478   1.464       .  S
In407       O409   2.239       .  S
In407       O410   2.261       .  S
In407       O418   2.270       .  S
In407       O412   2.220       .  S
In407       O414   2.221       .  S
In407       O415   2.272       .  S
In407       O416   2.266       .  S
In407       O419   2.208       .  S
C408        O414   1.258       .  A
C408        O416   1.263       .  A
C408        C695   1.482       .  S
O409        C417   1.256       .  A
O410        C417   1.262       .  A
C411        O418   1.261       .  A
C411        O412   1.258       .  A
C411        C681   1.475       .  S
C413        O415   1.264       .  A
C413        O419   1.258       .  A
C413       C1251   1.461   1_455  S
C417        C426   1.464       .  S
In420       O422   2.207       .  S
In420       O423   2.280       .  S
In420       O431   2.258       .  S
In420       O425   2.237       .  S
In420       O427   2.234       .  S
In420       O428   2.244       .  S
In420       O429   2.255       .  S
In420       O432   2.249       .  S
C421        O427   1.260       .  A
C421        O429   1.261       .  A
C421        C653   1.470       .  S
O422        C430   1.256       .  A
O423        C430   1.263       .  A
C424        O431   1.261       .  A
C424        O425   1.259       .  A
C424        C664   1.470       .  S
C426        O428   1.262       .  A
C426        O432   1.259       .  A
C430        C504   1.461       .  S
In433       O435   2.223   1_565  S
In433       O436   2.242   1_565  S
In433       O438   2.260   1_565  S
In433       O440   2.245       .  S
In433       O441   2.255       .  S
In433       O442   2.214       .  S
C434        O440   1.268       .  A
C434        O442   1.262       .  A
C434        C692   1.466       .  S
O435        C443   1.264       .  A
O436        C443   1.267       .  A
C437        O444   1.260       .  A
C437        C751   1.485       .  S
C439        O445   1.261       .  A
C439        C667   1.481       .  S
C443        C720   1.483       .  S
In446       O448   2.219       .  S
In446       O449   2.243       .  S
In446       O457   2.203       .  S
In446       O451   2.262       .  S
In446       O453   2.254       .  S
In446       O454   2.244       .  S
C447        O455   1.261       .  A
C447        C737   1.467       .  S
O448        C456   1.261       .  A
O449        C456   1.267       .  A
C450        O457   1.262       .  A
C450        O451   1.268       .  A
C450        C678   1.486       .  S
C452        O458   1.263       .  A
C452        C650   1.477       .  S
C456        C709   1.473       .  S
In459       O461   2.255       .  S
In459       O462   2.244       .  S
In459       O470   2.252       .  S
In459       O464   2.237       .  S
In459       O466   2.235       .  S
In459       O467   2.284       .  S
In459       O468   2.256       .  S
In459       O471   2.212       .  S
C460        O466   1.259       .  A
C460        O468   1.261       .  A
C460        C625   1.472       .  S
O461        C469   1.261       .  A
O462        C469   1.264       .  A
C463        O470   1.261       .  A
C463        O464   1.260       .  A
C463        C639   1.469       .  S
C465        O467   1.263       .  A
C465        O471   1.254       .  A
C465       C1151   1.463       .  S
C469        C482   1.469       .  S
In472       O474   2.239       .  S
In472       O475   2.267       .  S
In472       O483   2.265       .  S
In472       O477   2.218       .  S
In472       O479   2.223       .  S
In472       O480   2.283       .  S
In472       O481   2.266       .  S
In472       O484   2.205       .  S
C473        O479   1.258       .  A
C473        O481   1.261       .  A
C473        C594   1.483       .  S
O474        C482   1.258       .  A
O475        C482   1.264       .  A
C476        O483   1.262       .  A
C476        O477   1.260       .  A
C476        C608   1.485       .  S
C478        O480   1.265       .  A
C478        O484   1.256       .  A
In485       O487   2.238       .  S
In485       O488   2.256       .  S
In485       O496   2.286       .  S
In485       O490   2.199       .  S
In485       O492   2.203       .  S
In485       O493   2.275       .  S
In485       O494   2.277       .  S
In485       O497   2.206       .  S
C486        O492   1.259       .  A
C486        O494   1.264       .  A
C486        C566   1.480       .  S
O487        C495   1.256       .  A
O488        C495   1.264       .  A
C489        O496   1.263       .  A
C489        O490   1.255       .  A
C489        C580   1.486       .  S
C491        O493   1.265       .  A
C491        O497   1.256       .  A
C491       C1173   1.461       .  S
C495        C508   1.464       .  S
In498       O500   2.234       .  S
In498       O501   2.254       .  S
In498       O509   2.284       .  S
In498       O503   2.190       .  S
In498       O505   2.207       .  S
In498       O506   2.280       .  S
In498       O507   2.275       .  S
In498       O510   2.200       .  S
C499        O505   1.256       .  A
C499        O507   1.263       .  A
C499        C541   1.485       .  S
O500        C508   1.256       .  A
O501        C508   1.265       .  A
C502        O509   1.263       .  A
C502        O503   1.258       .  A
C502        C555   1.483       .  S
C504        O506   1.266       .  A
C504        O510   1.256       .  A
In511       O513   2.203   1_565  S
In511       O514   2.257   1_565  S
In511       O522   2.212       .  S
In511       O516   2.261       .  S
In511       O518   2.244   1_565  S
In511       O519   2.253       .  S
In511       O523   2.219       .  S
C512        O520   1.264       .  A
C512        C636   1.478       .  S
O513        C521   1.261       .  A
O514        C521   1.269       .  A
C515        O522   1.263       .  A
C515        O516   1.269       .  A
C515        C583   1.477       .  S
C517        C552   1.472       .  S
C521        C611   1.468       .  S
In524       O526   2.206       .  S
In524       O527   2.251       .  S
In524       O535   2.212       .  S
In524       O529   2.251       .  S
In524       O531   2.257       .  S
In524       O532   2.244       .  S
In524       O536   2.216       .  S
C525        O533   1.260       .  A
C525        C622   1.480       .  S
C528        O535   1.263       .  A
C528        O529   1.270       .  A
C528        C569   1.475       .  S
C530        O532   1.268       .  A
C530        O536   1.262       .  A
C530        C597   1.469       .  S
C534        C538   1.474       .  S
C537        C538   1.398       .  A
C537        C542   1.394       .  A
C537        H544   1.083       .  S
C538        C539   1.415       .  A
C539        C540   1.412       .  A
C539        N546   1.441       .  S
C540        C541   1.409       .  A
C540        H545   1.083       .  S
C541        C542   1.415       .  A
C542        N543   1.434       .  S
N543        O547   1.262       .  A
N543        O548   1.263       .  A
N546        O549   1.262       .  A
N546        O550   1.263       .  A
C551        C552   1.405       .  A
C551        C556   1.415       .  A
C551        H558   1.084       .  S
C552        C553   1.404       .  A
C553        C554   1.388       .  A
C554        C555   1.400       .  A
C554        H559   1.084       .  S
C555        C556   1.420       .  A
C556        N557   1.436       .  S
N557        O561   1.263       .  A
N557        O562   1.262       .  A
N560        O563   1.262       .  A
N560        O564   1.262       .  A
C565        C566   1.400       .  A
C565        C570   1.395       .  A
C565        H572   1.084       .  S
C566        C567   1.417       .  A
C567        C568   1.412       .  A
C567        N574   1.438       .  S
C568        C569   1.405       .  A
C568        H573   1.084       .  S
C569        C570   1.414       .  A
C570        N571   1.439       .  S
N571        O575   1.263       .  A
N571        O576   1.261       .  A
N574        O577   1.262       .  A
N574        O578   1.263       .  A
C579        C580   1.410       .  A
C579        C584   1.417       .  A
C579        H586   1.082       .  S
C580        C581   1.412       .  A
C581        C582   1.390       .  A
C581        N588   1.433       .  S
C582        C583   1.395       .  A
C582        H587   1.077       .  S
C583        C584   1.417       .  A
C584        N585   1.443       .  S
N585        O589   1.263       .  A
N585        O590   1.263       .  A
N588        O591   1.263       .  A
N588        O592   1.262       .  A
C593        C594   1.406       .  A
C593        C598   1.401       .  A
C593        H600   1.084       .  S
C594        C595   1.415       .  A
C595        C596   1.405       .  A
C595        N602   1.435       .  S
C596        C597   1.403       .  A
C596        H601   1.084       .  S
C597        C598   1.411       .  A
C598        N599   1.440       .  S
N599        O603   1.263       .  A
N599        O604   1.262       .  A
N602        O605   1.262       .  A
N602        O606   1.262       .  A
C607        C608   1.405       .  A
C607        C612   1.397       .  A
C607        H614   1.084       .  S
C608        C609   1.419       .  A
C609        C610   1.409       .  A
C609        N616   1.436       .  S
C610        C611   1.401       .  A
C610        H615   1.084       .  S
C611        C612   1.410       .  A
C612        N613   1.440       .  S
N613        O617   1.263       .  A
N613        O618   1.262       .  A
N616        O619   1.262       .  A
N616        O620   1.263       .  A
C621        C622   1.403       .  A
C621        C626   1.407       .  A
C622        C623   1.414       .  A
C623        C624   1.398       .  A
C623        N630   1.429       .  S
C624        C625   1.399       .  A
C624        H629   1.084       .  S
C625        C626   1.416       .  A
C626        N627   1.441       .  S
N627        O631   1.263       .  A
N627        O632   1.263       .  A
N630        O633   1.262       .  A
N630        O634   1.262       .  A
C635        C636   1.402       .  A
C635        C640   1.407       .  A
C635        H642   1.083       .  S
C636        C637   1.416       .  A
C637        C638   1.402       .  A
C637        N644   1.439       .  S
C638        C639   1.399       .  A
C638        H643   1.084       .  S
C639        C640   1.418       .  A
C640        N641   1.446       .  S
N641        O645   1.263       .  A
N641        O646   1.262       .  A
N644        O647   1.263       .  A
N644        O648   1.263       .  A
C649        C650   1.402       .  A
C649        C654   1.407       .  A
C650        C651   1.414       .  A
C651        C652   1.404       .  A
C651        N658   1.441       .  S
C652        C653   1.401       .  A
C652        H657   1.084       .  S
C653        C654   1.420       .  A
C654        N655   1.447       .  S
N655        O659   1.263       .  A
N655        O660   1.261       .  A
N658        O661   1.263       .  A
N658        O662   1.263       .  A
C663        C664   1.399       .  A
C663        C668   1.402       .  A
C663        H670   1.084       .  S
C664        C665   1.419       .  A
C665        C666   1.407       .  A
C665        N672   1.445       .  S
C666        C667   1.403       .  A
C666        H671   1.083       .  S
C667        C668   1.416       .  A
C668        N669   1.439       .  S
N669        O673   1.263       .  A
N669        O674   1.263       .  A
N672        O675   1.261       .  A
N672        O676   1.263       .  A
C677        C678   1.406       .  A
C677        C682   1.398       .  A
C677        H684   1.083       .  S
C678        C679   1.416       .  A
C679        C680   1.408       .  A
C679        N686   1.433       .  S
C680        C681   1.404       .  A
C680        H685   1.084       .  S
C681        C682   1.411       .  A
C682        N683   1.440       .  S
N683        O687   1.263       .  A
N683        O688   1.263       .  A
N686        O689   1.262       .  A
N686        O690   1.262       .  A
C691        C692   1.398       .  A
C691        C696   1.398       .  A
C691        H698   1.084       .  S
C692        C693   1.418       .  A
C693        C694   1.410       .  A
C693        N700   1.446       .  S
C694        C695   1.405       .  A
C694        H699   1.083       .  S
C695        C696   1.415       .  A
C696        N697   1.437       .  S
N697        O701   1.263       .  A
N697        O702   1.263       .  A
N700        O703   1.262       .  A
N700        O704   1.263       .  A
C705        C706   1.402       .  A
C705        C710   1.409       .  A
C705        H712   1.084       .  S
C706        C707   1.412       .  A
C707        C708   1.400       .  A
C707        N714   1.440       .  S
C708        C709   1.402       .  A
C708        H713   1.084       .  S
C709        C710   1.423       .  A
C710        N711   1.446       .  S
N711        O715   1.263       .  A
N711        O716   1.261       .  A
N714        O717   1.263       .  A
N714        O718   1.263       .  A
C719        C720   1.407       .  A
C719        C724   1.406       .  A
C719        H726   1.084       .  S
C720        C721   1.414       .  A
C721        C722   1.402       .  A
C721        N728   1.434       .  S
C722        C723   1.402       .  A
C722        H727   1.084       .  S
C723        C724   1.414       .  A
C724        N725   1.441       .  S
N725        O729   1.263       .  A
N725        O730   1.262       .  A
N728        O731   1.262       .  A
N728        O732   1.262       .  A
C733        C734   1.406       .  A
C733        C738   1.399       .  A
C733        H740   1.084       .  S
C734        C735   1.418       .  A
C735        C736   1.408       .  A
C735        N742   1.435       .  S
C736        C737   1.401       .  A
C736        H741   1.084       .  S
C737        C738   1.410       .  A
N739        O743   1.263       .  A
N739        O744   1.262       .  A
N742        O745   1.262       .  A
N742        O746   1.263       .  A
C747        C748   1.397       .  A
C747        C752   1.398       .  A
C747        H754   1.084       .  S
C748        C749   1.417       .  A
C749        C750   1.409       .  A
C749        N756   1.442       .  S
C750        C751   1.406       .  A
C750        H755   1.083       .  S
C751        C752   1.417       .  A
C752        N753   1.437       .  S
N753        O757   1.263       .  A
N753        O758   1.263       .  A
N756        O759   1.262       .  A
N756        O760   1.263       .  A
In761       O763   2.210       .  S
In761       O764   2.274       .  S
In761       O772   2.266       .  S
In761       O766   2.227       .  S
In761       O768   2.221       .  S
In761       O769   2.267       .  S
In761       O770   2.267       .  S
In761       O773   2.236       .  S
C762        O768   1.259       .  A
C762        O770   1.262       .  A
C762       C1114   1.486       .  S
O763        C771   1.258       .  A
O764        C771   1.265       .  A
C765        O772   1.261       .  A
C765        O766   1.257       .  A
C765       C1128   1.469       .  S
C767        O769   1.262       .  A
C767        O773   1.255       .  A
C767        C784   1.465       .  S
In774       O776   2.251       .  S
In774       O777   2.239       .  S
In774       O785   2.260       .  S
In774       O779   2.229       .  S
In774       O781   2.231       .  S
In774       O782   2.287       .  S
In774       O783   2.261       .  S
In774       O786   2.213       .  S
C775        O781   1.258       .  A
C775        O783   1.262       .  A
C775       C1103   1.471       .  S
O776        C784   1.260       .  A
O777        C784   1.263       .  A
C778        O785   1.261       .  A
C778        O779   1.259       .  A
C778       C1086   1.475       .  S
C780        O782   1.262       .  A
C780        O786   1.255       .  A
C780        C858   1.464       .  S
In787       O789   2.239       .  S
In787       O790   2.261       .  S
In787       O798   2.270       .  S
In787       O792   2.220       .  S
In787       O794   2.221       .  S
In787       O795   2.272       .  S
In787       O796   2.266       .  S
In787       O799   2.208       .  S
C788        O794   1.258       .  A
C788        O796   1.263       .  A
C788       C1075   1.482       .  S
O789        C797   1.256       .  A
O790        C797   1.262       .  A
C791        O798   1.261       .  A
C791        O792   1.258       .  A
C791       C1061   1.475       .  S
C793        O795   1.264       .  A
C793        O799   1.258       .  A
C797        C806   1.464       .  S
In800       O802   2.207       .  S
In800       O803   2.280       .  S
In800       O811   2.258       .  S
In800       O805   2.237       .  S
In800       O807   2.234       .  S
In800       O808   2.244       .  S
In800       O809   2.255       .  S
In800       O812   2.249       .  S
C801        O807   1.260       .  A
C801        O809   1.261       .  A
C801       C1033   1.470       .  S
O802        C810   1.256       .  A
O803        C810   1.263       .  A
C804        O811   1.261       .  A
C804        O805   1.259       .  A
C804       C1044   1.470       .  S
C806        O808   1.262       .  A
C806        O812   1.259       .  A
C810        C884   1.461       .  S
In813       O815   2.223   1_565  S
In813       O816   2.242   1_565  S
In813      O1204   2.205   1_565  S
In813       O818   2.260   1_565  S
In813       O820   2.245       .  S
In813       O821   2.255       .  S
In813       O822   2.214       .  S
In813      O1205   2.212       .  S
C814        O820   1.268       .  A
C814        O822   1.262       .  A
C814       C1072   1.466       .  S
O815        C823   1.264       .  A
O816        C823   1.267       .  A
C817        O824   1.260   1_554  A
C817       O1198   1.269   1_554  A
C817       C1131   1.485       .  S
O818       C1197   1.269       .  A
C819       O1201   1.268   1_554  A
C819        O825   1.261       .  A
C819       C1047   1.481       .  S
O821       C1199   1.268       .  A
C823       C1100   1.483       .  S
O824      In1193   2.205   1_545  S
O825      In1193   2.212   1_554  S
In826       O828   2.219       .  S
In826       O829   2.243       .  S
In826       O837   2.203       .  S
In826       O831   2.262       .  S
In826       O833   2.254       .  S
In826       O834   2.244       .  S
In826      O1215   2.210       .  S
In826      O1218   2.222       .  S
C827       O1213   1.268   1_554  A
C827        O835   1.261   1_554  A
C827       C1117   1.467       .  S
O828        C836   1.261       .  A
O829        C836   1.267       .  A
C830        O837   1.262       .  A
C830        O831   1.268       .  A
C830       C1058   1.486       .  S
C832       O1214   1.267   1_554  A
C832        O838   1.263       .  A
C832       C1030   1.477       .  S
O833       C1207   1.268       .  A
O834       C1212   1.267       .  A
O835      In1206   2.210       .  S
C836       C1089   1.473       .  S
O838      In1206   2.222   1_554  S
In839       O841   2.255       .  S
In839       O842   2.244       .  S
In839       O850   2.252       .  S
In839       O844   2.237       .  S
In839       O846   2.235       .  S
In839       O847   2.284       .  S
In839       O848   2.256       .  S
In839       O851   2.212       .  S
C840        O846   1.259       .  A
C840        O848   1.261       .  A
C840       C1005   1.472       .  S
O841        C849   1.261       .  A
O842        C849   1.264       .  A
C843        O850   1.261       .  A
C843        O844   1.260       .  A
C843       C1019   1.469       .  S
C845        O847   1.263       .  A
C845        O851   1.254       .  A
C849        C862   1.469       .  S
In852       O854   2.239       .  S
In852       O855   2.267       .  S
In852       O863   2.265       .  S
In852       O857   2.218       .  S
In852       O859   2.223       .  S
In852       O860   2.283       .  S
In852       O861   2.266       .  S
In852       O864   2.205       .  S
C853        O859   1.258       .  A
C853        O861   1.261       .  A
C853        C974   1.483       .  S
O854        C862   1.258       .  A
O855        C862   1.264       .  A
C856        O863   1.262       .  A
C856        O857   1.260       .  A
C856        C988   1.485       .  S
C858        O860   1.265       .  A
C858        O864   1.256       .  A
In865       O867   2.238       .  S
In865       O868   2.256       .  S
In865       O876   2.286       .  S
In865       O870   2.199       .  S
In865       O872   2.203       .  S
In865       O873   2.275       .  S
In865       O874   2.277       .  S
In865       O877   2.206       .  S
C866        O872   1.259       .  A
C866        O874   1.264       .  A
C866        C946   1.480       .  S
O867        C875   1.256       .  A
O868        C875   1.264       .  A
C869        O876   1.263       .  A
C869        O870   1.255       .  A
C869        C960   1.486       .  S
C871        O873   1.265       .  A
C871        O877   1.256       .  A
C875        C888   1.464       .  S
In878       O880   2.234       .  S
In878       O881   2.254       .  S
In878       O889   2.284       .  S
In878       O883   2.190       .  S
In878       O885   2.207       .  S
In878       O886   2.280       .  S
In878       O887   2.275       .  S
In878       O890   2.200       .  S
C879        O885   1.256       .  A
C879        O887   1.263       .  A
C879        C921   1.485       .  S
O880        C888   1.256       .  A
O881        C888   1.265       .  A
C882        O889   1.263       .  A
C882        O883   1.258       .  A
C882        C935   1.483       .  S
C884        O886   1.266       .  A
C884        O890   1.256       .  A
In891       O893   2.203   1_565  S
In891       O894   2.257   1_565  S
In891       O902   2.212       .  S
In891       O896   2.261       .  S
In891       O898   2.244   1_565  S
In891       O899   2.253       .  S
In891      O1280   2.207   1_565  S
In891       O903   2.219       .  S
C892       O1278   1.271   1_554  A
C892        O900   1.264       .  A
C892       C1016   1.478       .  S
O893        C901   1.261       .  A
O894        C901   1.269       .  A
C895        O902   1.263       .  A
C895        O896   1.269       .  A
C895        C963   1.477       .  S
C897       O1279   1.269   1_554  A
C897       O1283   1.263   1_554  A
C897        C932   1.472       .  S
O898       C1272   1.271       .  A
O899       C1277   1.269       .  A
O900      In1271   2.207   1_544  S
C901        C991   1.468       .  S
O903       C1277   1.263       .  A
In904       O906   2.206       .  S
In904       O907   2.251       .  S
In904       O915   2.212       .  S
In904       O909   2.251       .  S
In904       O911   2.257       .  S
In904       O912   2.244       .  S
In904      O1293   2.206       .  S
In904       O916   2.216       .  S
C905       O1291   1.270   1_554  A
C905        O913   1.260       .  A
C905       C1002   1.480       .  S
O906       C1294   1.264       .  A
O907       C1294   1.270       .  A
C908        O915   1.263       .  A
C908        O909   1.270       .  A
C908        C949   1.475       .  S
C910        O912   1.268       .  A
C910        O916   1.262       .  A
C910        C977   1.469       .  S
O911       C1285   1.270       .  A
O913      In1284   2.206   1_554  S
C914       O1286   1.264   1_554  A
C914       O1287   1.270   1_554  A
C914        C918   1.474       .  S
C917        C918   1.398       .  A
C917        C922   1.394       .  A
C917        H924   1.083       .  S
C918        C919   1.415       .  A
C919        C920   1.412       .  A
C919        N926   1.441       .  S
C920        C921   1.409       .  A
C920        H925   1.083       .  S
C921        C922   1.415       .  A
C922        N923   1.434       .  S
N923        O927   1.262       .  A
N923        O928   1.263       .  A
N926        O929   1.262       .  A
N926        O930   1.263       .  A
C931        C932   1.405       .  A
C931        C936   1.415       .  A
C931        H938   1.084       .  S
C932        C933   1.404       .  A
C933        C934   1.388       .  A
C933       N1320   1.429   1_554  S
C934        C935   1.400       .  A
C934        H939   1.084       .  S
C935        C936   1.420       .  A
C936        N937   1.436       .  S
N937        O941   1.263       .  A
N937        O942   1.262       .  A
N940       C1313   1.429       .  S
N940        O943   1.262       .  A
N940        O944   1.262       .  A
C945        C946   1.400       .  A
C945        C950   1.395       .  A
C945        H952   1.084       .  S
C946        C947   1.417       .  A
C947        C948   1.412       .  A
C947        N954   1.438       .  S
C948        C949   1.405       .  A
C948        H953   1.084       .  S
C949        C950   1.414       .  A
C950        N951   1.439       .  S
N951        O955   1.263       .  A
N951        O956   1.261       .  A
N954        O957   1.262       .  A
N954        O958   1.263       .  A
C959        C960   1.410       .  A
C959        C964   1.417       .  A
C959        H966   1.082       .  S
C960        C961   1.412       .  A
C961        C962   1.390       .  A
C961        N968   1.433       .  S
C962        C963   1.395       .  A
C962        H967   1.076       .  S
C963        C964   1.417       .  A
C964        N965   1.443       .  S
N965        O969   1.263       .  A
N965        O970   1.263       .  A
N968        O971   1.263       .  A
N968        O972   1.262       .  A
C973        C974   1.406       .  A
C973        C978   1.401       .  A
C973        H980   1.084       .  S
C974        C975   1.415       .  A
C975        C976   1.405       .  A
C975        N982   1.435       .  S
C976        C977   1.403       .  A
C976        H981   1.084       .  S
C977        C978   1.411       .  A
C978        N979   1.440       .  S
N979        O983   1.263       .  A
N979        O984   1.262       .  A
N982        O985   1.262       .  A
N982        O986   1.262       .  A
C987        C988   1.405       .  A
C987        C992   1.397       .  A
C987        H994   1.084       .  S
C988        C989   1.419       .  A
C989        C990   1.409       .  A
C989        N996   1.436       .  S
C990        C991   1.401       .  A
C990        H995   1.084       .  S
C991        C992   1.410       .  A
C992        N993   1.440       .  S
N993        O997   1.263       .  A
N993        O998   1.262       .  A
N996        O999   1.262       .  A
N996       O1000   1.263       .  A
C1001      C1002   1.403       .  A
C1001      C1006   1.407       .  A
C1001      H1388   1.083   1_554  S
C1002      C1003   1.414       .  A
C1003      C1004   1.398       .  A
C1003      N1010   1.429       .  S
C1004      C1005   1.399       .  A
C1004      H1009   1.084       .  S
C1005      C1006   1.416       .  A
C1006      N1007   1.441       .  S
N1007      O1011   1.263   1_554  A
N1007      O1012   1.263       .  A
H1008      C1381   1.083       .  S
N1010      O1013   1.262       .  A
N1010      O1014   1.262       .  A
C1015      C1016   1.402       .  A
C1015      C1020   1.407       .  A
C1015      H1022   1.083   1_554  S
C1016      C1017   1.416       .  A
C1017      C1018   1.402       .  A
C1017      N1024   1.439       .  S
C1018      C1019   1.399       .  A
C1018      H1023   1.084       .  S
C1019      C1020   1.418       .  A
C1020      N1021   1.446       .  S
N1021      O1025   1.263   1_554  A
N1021      O1026   1.262       .  A
N1024      O1027   1.263       .  A
N1024      O1028   1.263       .  A
C1029      C1030   1.402       .  A
C1029      C1034   1.407       .  A
C1029      H1416   1.083   1_554  S
C1030      C1031   1.414       .  A
C1031      C1032   1.404       .  A
C1031      N1038   1.441       .  S
C1032      C1033   1.401       .  A
C1032      H1037   1.084       .  S
C1033      C1034   1.420       .  A
C1034      N1035   1.447       .  S
N1035      O1039   1.263       .  A
N1035      O1040   1.261       .  A
H1036      C1409   1.083       .  S
N1038      O1041   1.263       .  A
N1038      O1042   1.263       .  A
C1043      C1044   1.399       .  A
C1043      C1048   1.402       .  A
C1043      H1050   1.084       .  S
C1044      C1045   1.419       .  A
C1045      C1046   1.407       .  A
C1045      N1052   1.445       .  S
C1046      C1047   1.403       .  A
C1046      H1051   1.083       .  S
C1047      C1048   1.416       .  A
C1048      N1049   1.439       .  S
N1049      O1053   1.263       .  A
N1049      O1054   1.263       .  A
N1052      O1055   1.261       .  A
N1052      O1056   1.263       .  A
C1057      C1058   1.406       .  A
C1057      C1062   1.398       .  A
C1057      H1064   1.083       .  S
C1058      C1059   1.416       .  A
C1059      C1060   1.408       .  A
C1059      N1066   1.433       .  S
C1060      C1061   1.404       .  A
C1060      H1065   1.084       .  S
C1061      C1062   1.411       .  A
C1062      N1063   1.440       .  S
N1063      O1067   1.263       .  A
N1063      O1068   1.263       .  A
N1066      O1069   1.262       .  A
N1066      O1070   1.262       .  A
C1071      C1072   1.398       .  A
C1071      C1076   1.398       .  A
C1071      H1078   1.084       .  S
C1072      C1073   1.418       .  A
C1073      C1074   1.410       .  A
C1073      N1080   1.446       .  S
C1074      C1075   1.405       .  A
C1074      H1079   1.083       .  S
C1075      C1076   1.415       .  A
C1076      N1077   1.437       .  S
N1077      O1081   1.263       .  A
N1077      O1082   1.263       .  A
N1080      O1083   1.262       .  A
N1080      O1084   1.263       .  A
C1085      C1086   1.402       .  A
C1085      C1090   1.409       .  A
C1085      H1092   1.084       .  S
C1086      C1087   1.412       .  A
C1087      C1088   1.400       .  A
C1087      N1094   1.440       .  S
C1088      C1089   1.402       .  A
C1088      H1093   1.084       .  S
C1089      C1090   1.423       .  A
C1090      N1091   1.446       .  S
N1091      O1095   1.263       .  A
N1091      O1096   1.261       .  A
N1094      O1097   1.263       .  A
N1094      O1098   1.263       .  A
C1099      C1100   1.407       .  A
C1099      C1104   1.406       .  A
C1099      H1106   1.084       .  S
C1100      C1101   1.414       .  A
C1101      C1102   1.402       .  A
C1101      N1108   1.434       .  S
C1102      C1103   1.402       .  A
C1102      H1107   1.084       .  S
C1103      C1104   1.414       .  A
C1104      N1105   1.441       .  S
N1105      O1109   1.263       .  A
N1105      O1110   1.262       .  A
N1108      O1111   1.262       .  A
N1108      O1112   1.262       .  A
C1113      C1114   1.406       .  A
C1113      C1118   1.399       .  A
C1113      H1120   1.084       .  S
C1114      C1115   1.418       .  A
C1115      C1116   1.408       .  A
C1115      N1122   1.435       .  S
C1116      C1117   1.401       .  A
C1116      H1121   1.084       .  S
C1117      C1118   1.410       .  A
C1118      N1499   1.440   1_554  S
N1119      C1498   1.440       .  S
N1119      O1123   1.263       .  A
N1119      O1124   1.262       .  A
N1122      O1125   1.262       .  A
N1122      O1126   1.263       .  A
C1127      C1128   1.397       .  A
C1127      C1132   1.398       .  A
C1127      H1134   1.084       .  S
C1128      C1129   1.417       .  A
C1129      C1130   1.409       .  A
C1129      N1136   1.442       .  S
C1130      C1131   1.406       .  A
C1130      H1135   1.083       .  S
C1131      C1132   1.417       .  A
C1132      N1133   1.437       .  S
N1133      O1137   1.263       .  A
N1133      O1138   1.263       .  A
N1136      O1139   1.262       .  A
N1136      O1140   1.263       .  A
In1141     O1143   2.210       .  S
In1141     O1144   2.274       .  S
In1141     O1152   2.266       .  S
In1141     O1146   2.227       .  S
In1141     O1148   2.221       .  S
In1141     O1149   2.267       .  S
In1141     O1150   2.267       .  S
In1141     O1153   2.236       .  S
C1142      O1148   1.259       .  A
C1142      O1150   1.262       .  A
C1142      C1494   1.486       .  S
O1143      C1151   1.258       .  A
O1144      C1151   1.265       .  A
C1145      O1152   1.261       .  A
C1145      O1146   1.257       .  A
C1145      C1508   1.469       .  S
C1147      O1149   1.262       .  A
C1147      O1153   1.255       .  A
C1147      C1164   1.465       .  S
In1154     O1156   2.251       .  S
In1154     O1157   2.239       .  S
In1154     O1165   2.260       .  S
In1154     O1159   2.229       .  S
In1154     O1161   2.231       .  S
In1154     O1162   2.287       .  S
In1154     O1163   2.261       .  S
In1154     O1166   2.213       .  S
C1155      O1161   1.258       .  A
C1155      O1163   1.262       .  A
C1155      C1483   1.471       .  S
O1156      C1164   1.260       .  A
O1157      C1164   1.263       .  A
C1158      O1165   1.261       .  A
C1158      O1159   1.259       .  A
C1158      C1466   1.475       .  S
C1160      O1162   1.262       .  A
C1160      O1166   1.255       .  A
C1160      C1238   1.464       .  S
In1167     O1169   2.239       .  S
In1167     O1170   2.261       .  S
In1167     O1178   2.270       .  S
In1167     O1172   2.220       .  S
In1167     O1174   2.221       .  S
In1167     O1175   2.272       .  S
In1167     O1176   2.266       .  S
In1167     O1179   2.208       .  S
C1168      O1174   1.258       .  A
C1168      O1176   1.263       .  A
C1168      C1455   1.482       .  S
O1169      C1177   1.256       .  A
O1170      C1177   1.262       .  A
C1171      O1178   1.261       .  A
C1171      O1172   1.258       .  A
C1171      C1441   1.475       .  S
C1173      O1175   1.264       .  A
C1173      O1179   1.258       .  A
C1177      C1186   1.464       .  S
In1180     O1182   2.207       .  S
In1180     O1183   2.280       .  S
In1180     O1191   2.258       .  S
In1180     O1185   2.237       .  S
In1180     O1187   2.234       .  S
In1180     O1188   2.244       .  S
In1180     O1189   2.255       .  S
In1180     O1192   2.249       .  S
C1181      O1187   1.260       .  A
C1181      O1189   1.261       .  A
C1181      C1413   1.470       .  S
O1182      C1190   1.256       .  A
O1183      C1190   1.263       .  A
C1184      O1191   1.261       .  A
C1184      O1185   1.259       .  A
C1184      C1424   1.470       .  S
C1186      O1188   1.262       .  A
C1186      O1192   1.259       .  A
C1190      C1264   1.461       .  S
In1193     O1195   2.223   1_565  S
In1193     O1196   2.242   1_565  S
In1193     O1198   2.260   1_565  S
In1193     O1200   2.245       .  S
In1193     O1201   2.255       .  S
In1193     O1202   2.214       .  S
C1194      O1200   1.268       .  A
C1194      O1202   1.262       .  A
C1194      C1452   1.466       .  S
O1195      C1203   1.264       .  A
O1196      C1203   1.267       .  A
C1197      O1204   1.260       .  A
C1197      C1511   1.485       .  S
C1199      O1205   1.261       .  A
C1199      C1427   1.481       .  S
C1203      C1480   1.483       .  S
In1206     O1208   2.219       .  S
In1206     O1209   2.243       .  S
In1206     O1217   2.203       .  S
In1206     O1211   2.262       .  S
In1206     O1213   2.254       .  S
In1206     O1214   2.244       .  S
C1207      O1215   1.261       .  A
C1207      C1497   1.467       .  S
O1208      C1216   1.261       .  A
O1209      C1216   1.267       .  A
C1210      O1217   1.262       .  A
C1210      O1211   1.268       .  A
C1210      C1438   1.486       .  S
C1212      O1218   1.263       .  A
C1212      C1410   1.477       .  S
C1216      C1469   1.473       .  S
In1219     O1221   2.255       .  S
In1219     O1222   2.244       .  S
In1219     O1230   2.252       .  S
In1219     O1224   2.237       .  S
In1219     O1226   2.235       .  S
In1219     O1227   2.284       .  S
In1219     O1228   2.256       .  S
In1219     O1231   2.212       .  S
C1220      O1226   1.259       .  A
C1220      O1228   1.261       .  A
C1220      C1385   1.472       .  S
O1221      C1229   1.261       .  A
O1222      C1229   1.264       .  A
C1223      O1230   1.261       .  A
C1223      O1224   1.260       .  A
C1223      C1399   1.469       .  S
C1225      O1227   1.263       .  A
C1225      O1231   1.254       .  A
C1229      C1242   1.469       .  S
In1232     O1234   2.239       .  S
In1232     O1235   2.267       .  S
In1232     O1243   2.265       .  S
In1232     O1237   2.218       .  S
In1232     O1239   2.223       .  S
In1232     O1240   2.283       .  S
In1232     O1241   2.266       .  S
In1232     O1244   2.205       .  S
C1233      O1239   1.258       .  A
C1233      O1241   1.261       .  A
C1233      C1354   1.483       .  S
O1234      C1242   1.258       .  A
O1235      C1242   1.264       .  A
C1236      O1243   1.262       .  A
C1236      O1237   1.260       .  A
C1236      C1368   1.485       .  S
C1238      O1240   1.265       .  A
C1238      O1244   1.256       .  A
In1245     O1247   2.238       .  S
In1245     O1248   2.256       .  S
In1245     O1256   2.286       .  S
In1245     O1250   2.199       .  S
In1245     O1252   2.203       .  S
In1245     O1253   2.275       .  S
In1245     O1254   2.277       .  S
In1245     O1257   2.206       .  S
C1246      O1252   1.259       .  A
C1246      O1254   1.264       .  A
C1246      C1326   1.480       .  S
O1247      C1255   1.256       .  A
O1248      C1255   1.264       .  A
C1249      O1256   1.263       .  A
C1249      O1250   1.255       .  A
C1249      C1340   1.486       .  S
C1251      O1253   1.265       .  A
C1251      O1257   1.256       .  A
C1255      C1268   1.464       .  S
In1258     O1260   2.234       .  S
In1258     O1261   2.254       .  S
In1258     O1269   2.284       .  S
In1258     O1263   2.190       .  S
In1258     O1265   2.207       .  S
In1258     O1266   2.280       .  S
In1258     O1267   2.275       .  S
In1258     O1270   2.200       .  S
C1259      O1265   1.256       .  A
C1259      O1267   1.263       .  A
C1259      C1301   1.485       .  S
O1260      C1268   1.256       .  A
O1261      C1268   1.265       .  A
C1262      O1269   1.263       .  A
C1262      O1263   1.258       .  A
C1262      C1315   1.483       .  S
C1264      O1266   1.266       .  A
C1264      O1270   1.256       .  A
In1271     O1273   2.203   1_565  S
In1271     O1274   2.257   1_565  S
In1271     O1282   2.212       .  S
In1271     O1276   2.261       .  S
In1271     O1278   2.244   1_565  S
In1271     O1279   2.253       .  S
In1271     O1283   2.219       .  S
C1272      O1280   1.264       .  A
C1272      C1396   1.478       .  S
O1273      C1281   1.261       .  A
O1274      C1281   1.269       .  A
C1275      O1282   1.263       .  A
C1275      O1276   1.269       .  A
C1275      C1343   1.477       .  S
C1277      C1312   1.472       .  S
C1281      C1371   1.468       .  S
In1284     O1286   2.206       .  S
In1284     O1287   2.251       .  S
In1284     O1295   2.212       .  S
In1284     O1289   2.251       .  S
In1284     O1291   2.257       .  S
In1284     O1292   2.244       .  S
In1284     O1296   2.216       .  S
C1285      O1293   1.260       .  A
C1285      C1382   1.480       .  S
C1288      O1295   1.263       .  A
C1288      O1289   1.270       .  A
C1288      C1329   1.475       .  S
C1290      O1292   1.268       .  A
C1290      O1296   1.262       .  A
C1290      C1357   1.469       .  S
C1294      C1298   1.474       .  S
C1297      C1298   1.398       .  A
C1297      C1302   1.394       .  A
C1297      H1304   1.083       .  S
C1298      C1299   1.415       .  A
C1299      C1300   1.412       .  A
C1299      N1306   1.441       .  S
C1300      C1301   1.409       .  A
C1300      H1305   1.083       .  S
C1301      C1302   1.415       .  A
C1302      N1303   1.434       .  S
N1303      O1307   1.262       .  A
N1303      O1308   1.263       .  A
N1306      O1309   1.262       .  A
N1306      O1310   1.263       .  A
C1311      C1312   1.405       .  A
C1311      C1316   1.415       .  A
C1311      H1318   1.084       .  S
C1312      C1313   1.404       .  A
C1313      C1314   1.388       .  A
C1314      C1315   1.400       .  A
C1314      H1319   1.084       .  S
C1315      C1316   1.420       .  A
C1316      N1317   1.436       .  S
N1317      O1321   1.263       .  A
N1317      O1322   1.262       .  A
N1320      O1323   1.262       .  A
N1320      O1324   1.262       .  A
C1325      C1326   1.400       .  A
C1325      C1330   1.395       .  A
C1325      H1332   1.084       .  S
C1326      C1327   1.417       .  A
C1327      C1328   1.412       .  A
C1327      N1334   1.438       .  S
C1328      C1329   1.405       .  A
C1328      H1333   1.084       .  S
C1329      C1330   1.414       .  A
C1330      N1331   1.439       .  S
N1331      O1335   1.263       .  A
N1331      O1336   1.261       .  A
N1334      O1337   1.262       .  A
N1334      O1338   1.263       .  A
C1339      C1340   1.410       .  A
C1339      C1344   1.417       .  A
C1339      H1346   1.082       .  S
C1340      C1341   1.412       .  A
C1341      C1342   1.390       .  A
C1341      N1348   1.433       .  S
C1342      C1343   1.395       .  A
C1342      H1347   1.076       .  S
C1343      C1344   1.417       .  A
C1344      N1345   1.443       .  S
N1345      O1349   1.263       .  A
N1345      O1350   1.263       .  A
N1348      O1351   1.263       .  A
N1348      O1352   1.262       .  A
C1353      C1354   1.406       .  A
C1353      C1358   1.401       .  A
C1353      H1360   1.084       .  S
C1354      C1355   1.415       .  A
C1355      C1356   1.405       .  A
C1355      N1362   1.435       .  S
C1356      C1357   1.403       .  A
C1356      H1361   1.084       .  S
C1357      C1358   1.411       .  A
C1358      N1359   1.440       .  S
N1359      O1363   1.263       .  A
N1359      O1364   1.262       .  A
N1362      O1365   1.262       .  A
N1362      O1366   1.262       .  A
C1367      C1368   1.405       .  A
C1367      C1372   1.397       .  A
C1367      H1374   1.084       .  S
C1368      C1369   1.419       .  A
C1369      C1370   1.409       .  A
C1369      N1376   1.436       .  S
C1370      C1371   1.401       .  A
C1370      H1375   1.084       .  S
C1371      C1372   1.410       .  A
C1372      N1373   1.440       .  S
N1373      O1377   1.263       .  A
N1373      O1378   1.262       .  A
N1376      O1379   1.262       .  A
N1376      O1380   1.263       .  A
C1381      C1382   1.403       .  A
C1381      C1386   1.407       .  A
C1382      C1383   1.414       .  A
C1383      C1384   1.398       .  A
C1383      N1390   1.429       .  S
C1384      C1385   1.399       .  A
C1384      H1389   1.084       .  S
C1385      C1386   1.416       .  A
C1386      N1387   1.441       .  S
N1387      O1391   1.263       .  A
N1387      O1392   1.263       .  A
N1390      O1393   1.262       .  A
N1390      O1394   1.262       .  A
C1395      C1396   1.402       .  A
C1395      C1400   1.407       .  A
C1395      H1402   1.083       .  S
C1396      C1397   1.416       .  A
C1397      C1398   1.402       .  A
C1397      N1404   1.439       .  S
C1398      C1399   1.399       .  A
C1398      H1403   1.084       .  S
C1399      C1400   1.418       .  A
C1400      N1401   1.446       .  S
N1401      O1405   1.263       .  A
N1401      O1406   1.262       .  A
N1404      O1407   1.263       .  A
N1404      O1408   1.263       .  A
C1409      C1410   1.402       .  A
C1409      C1414   1.407       .  A
C1410      C1411   1.414       .  A
C1411      C1412   1.404       .  A
C1411      N1418   1.441       .  S
C1412      C1413   1.401       .  A
C1412      H1417   1.084       .  S
C1413      C1414   1.420       .  A
C1414      N1415   1.447       .  S
N1415      O1419   1.263       .  A
N1415      O1420   1.261       .  A
N1418      O1421   1.263       .  A
N1418      O1422   1.263       .  A
C1423      C1424   1.399       .  A
C1423      C1428   1.402       .  A
C1423      H1430   1.084       .  S
C1424      C1425   1.419       .  A
C1425      C1426   1.407       .  A
C1425      N1432   1.445       .  S
C1426      C1427   1.403       .  A
C1426      H1431   1.083       .  S
C1427      C1428   1.416       .  A
C1428      N1429   1.439       .  S
N1429      O1433   1.263       .  A
N1429      O1434   1.263       .  A
N1432      O1435   1.261       .  A
N1432      O1436   1.263       .  A
C1437      C1438   1.406       .  A
C1437      C1442   1.398       .  A
C1437      H1444   1.083       .  S
C1438      C1439   1.416       .  A
C1439      C1440   1.408       .  A
C1439      N1446   1.433       .  S
C1440      C1441   1.404       .  A
C1440      H1445   1.084       .  S
C1441      C1442   1.411       .  A
C1442      N1443   1.440       .  S
N1443      O1447   1.263       .  A
N1443      O1448   1.263       .  A
N1446      O1449   1.262       .  A
N1446      O1450   1.262       .  A
C1451      C1452   1.398       .  A
C1451      C1456   1.398       .  A
C1451      H1458   1.084       .  S
C1452      C1453   1.418       .  A
C1453      C1454   1.410       .  A
C1453      N1460   1.446       .  S
C1454      C1455   1.405       .  A
C1454      H1459   1.083       .  S
C1455      C1456   1.415       .  A
C1456      N1457   1.437       .  S
N1457      O1461   1.263       .  A
N1457      O1462   1.263       .  A
N1460      O1463   1.262       .  A
N1460      O1464   1.263       .  A
C1465      C1466   1.402       .  A
C1465      C1470   1.409       .  A
C1465      H1472   1.084       .  S
C1466      C1467   1.412       .  A
C1467      C1468   1.400       .  A
C1467      N1474   1.440       .  S
C1468      C1469   1.402       .  A
C1468      H1473   1.084       .  S
C1469      C1470   1.423       .  A
C1470      N1471   1.446       .  S
N1471      O1475   1.263       .  A
N1471      O1476   1.261       .  A
N1474      O1477   1.263       .  A
N1474      O1478   1.263       .  A
C1479      C1480   1.407       .  A
C1479      C1484   1.406       .  A
C1479      H1486   1.084       .  S
C1480      C1481   1.414       .  A
C1481      C1482   1.402       .  A
C1481      N1488   1.434       .  S
C1482      C1483   1.402       .  A
C1482      H1487   1.084       .  S
C1483      C1484   1.414       .  A
C1484      N1485   1.441       .  S
N1485      O1489   1.263       .  A
N1485      O1490   1.262       .  A
N1488      O1491   1.262       .  A
N1488      O1492   1.262       .  A
C1493      C1494   1.406       .  A
C1493      C1498   1.399       .  A
C1493      H1500   1.084       .  S
C1494      C1495   1.418       .  A
C1495      C1496   1.408       .  A
C1495      N1502   1.435       .  S
C1496      C1497   1.401       .  A
C1496      H1501   1.084       .  S
C1497      C1498   1.410       .  A
N1499      O1503   1.263       .  A
N1499      O1504   1.262       .  A
N1502      O1505   1.262       .  A
N1502      O1506   1.263       .  A
C1507      C1508   1.397       .  A
C1507      C1512   1.398       .  A
C1507      H1514   1.084       .  S
C1508      C1509   1.417       .  A
C1509      C1510   1.409       .  A
C1509      N1516   1.442       .  S
C1510      C1511   1.406       .  A
C1510      H1515   1.083       .  S
C1511      C1512   1.417       .  A
C1512      N1513   1.437       .  S
N1513      O1517   1.263       .  A
N1513      O1518   1.263       .  A
N1516      O1519   1.262       .  A
N1516      O1520   1.263       .  A
