geometry optimzed in LAMMPS
_audit_creation_date              2020-11-30 
_audit_creation_method            'lammps2cif' 
_symmetry_space_group_name_H-M    'P1' 
_symmetry_Int_Tables_number       1 
_symmetry_cell_setting            triclinic 
loop_ 
_symmetry_equiv_pos_as_xyz 
  x,y,z 
_cell_length_a                    26.93486049 
_cell_length_b                    27.826243432622938 
_cell_length_c                    20.602183269824348 
_cell_angle_alpha                 87.10517706905138 
_cell_angle_beta                  91.80571178798704 
_cell_angle_gamma                 90.02320745042181 
loop_ 
_atom_site_label 
_atom_site_type_symbol 
_atom_site_fract_x 
_atom_site_fract_y 
_atom_site_fract_z 
_atom_site_charge 
C1          C  0.31139971  0.24243170  0.08637870    -0.01600
C2          C  0.74168142  0.31255694  0.41004260    -0.01600
C3          C  0.24020618  0.69599507  0.46604727    -0.01600
O4          O  0.43201502  0.54108057  0.43001568    -0.57000
C5          C  0.57112451  0.44050021  0.45239202     0.75700
O6          O  0.54394269  0.54244481  0.07088135    -0.58100
C7          C  0.40783778  0.55633614  0.47711565     0.75600
C8          C  0.43961462  0.41087187  0.05338468     0.78000
Cd9        Cd  0.49008762  0.49320204  0.00202641     1.37500
O10         O  0.53419304  0.45361011  0.41534261    -0.57000
O11         O  0.44567197  0.42266613  0.49314710    -0.55800
C12         C  0.55555332  0.57027438  0.02250228     0.78000
O13         O  0.45889091  0.43975812  0.09319116    -0.58100
O14         O  0.56881678  0.45224519  0.00753859    -0.56600
O15         O  0.42003808  0.53922542  0.03470464    -0.56600
O16         O  0.53954679  0.56265116  0.46947385    -0.55800
C17         C  0.73947260  0.19756347  0.16859886    -0.01600
C18         C  0.68276685  0.74115214  0.04236522    -0.01600
C19         C  0.80265856  0.74791839  0.29697098    -0.01600
O20         O  0.93901136  0.04761920  0.16254194    -0.57000
C21         C  0.06793869  0.94040714  0.22988593     0.75700
O22         O  0.02704494  0.05818163  0.33030092    -0.58100
C23         C  0.90921449  0.06476784  0.20248153     0.75600
C24         C  0.92157926  0.92632286  0.27631757     0.78000
Cd25       Cd  0.98806360  0.00436469  0.25007405     1.37500
O26         O  0.04319092  0.95865662  0.18080293    -0.57000
O27         O  0.93295141  0.94162849  0.21974835    -0.55800
C28         C  0.04983207  0.08325278  0.28697101     0.78000
O29         O  0.94154828  0.94783045  0.32393721    -0.58100
O30         O  0.05520942  0.95231044  0.28569637    -0.56600
O31         O  0.91654994  0.05387434  0.26259997    -0.56600
O32         O  0.04376573  0.07166918  0.22842757    -0.55800
C33         C  0.24554034  0.81745454  0.20916905    -0.01600
O34         O  0.45983768  0.94074980  0.21189012    -0.57000
C35         C  0.58182926  0.05235796  0.16753958     0.75700
O36         O  0.54120977  0.94299659  0.04078748    -0.58100
C37         C  0.42905235  0.92626268  0.16883890     0.75600
C38         C  0.43953521  0.06695916  0.10203860     0.78000
Cd39       Cd  0.50652236  0.98773919  0.12997717     1.37500
O40         O  0.56188434  0.02688386  0.21286442    -0.57000
O41         O  0.45418119  0.05230188  0.15869468    -0.55800
C42         C  0.56852255  0.91654687  0.07954559     0.78000
O43         O  0.45537161  0.04395700  0.05475738    -0.58100
O44         O  0.56871250  0.04399787  0.10945479    -0.56600
O45         O  0.43641994  0.93829676  0.10984525    -0.56600
O46         O  0.56795855  0.92451905  0.13956064    -0.55800
C47         C  0.18733272  0.24593795  0.33135872    -0.01600
O48         O  0.93576092  0.45938600  0.43083322    -0.57000
C49         C  0.07382752  0.56389291  0.41447301     0.75700
O50         O  0.04947574  0.44862698  0.30501977    -0.58100
C51         C  0.91147525  0.44544083  0.38085910     0.75600
C52         C  0.93740589  0.58187538  0.32657721     0.78000
Cd53       Cd  0.99753159  0.50222107  0.36845671     1.37500
O54         O  0.04390810  0.54511682  0.45541171    -0.57000
O55         O  0.94132561  0.56658749  0.38564650    -0.55800
C56         C  0.05992745  0.41942735  0.35341760     0.78000
O57         O  0.96195983  0.56007865  0.28477166    -0.58100
O58         O  0.06704159  0.55361863  0.35547401    -0.56600
O59         O  0.92709743  0.45884495  0.32520843    -0.56600
O60         O  0.04174102  0.42907987  0.40744932    -0.55800
C61         C  0.12049568  0.29600082  0.38324105    -0.11400
C62         C  0.15753315  0.29518080  0.33594641     0.05600
C63         C  0.16535590  0.34031145  0.30014799    -0.06700
C64         C  0.13166657  0.37877406  0.30483515    -0.07500
C65         C  0.09256308  0.37654061  0.34789651    -0.02000
C66         C  0.08792712  0.33476239  0.38860101     0.04800
N67         N  0.04860829  0.32976459  0.43355386     0.67300
H68         H  0.11433286  0.26461507  0.41416151     0.16200
H69         H  0.13790510  0.41207034  0.27666711     0.15900
N70         N  0.20856160  0.35100578  0.26320980     0.75000
O71         O  0.00513982  0.32088515  0.41282862    -0.38400
O72         O  0.05878791  0.32516699  0.49376137    -0.38400
O73         O  0.20196037  0.36578990  0.20472677    -0.39100
O74         O  0.24733067  0.36476300  0.29274904    -0.39100
C75         C  0.33776713  0.82516298  0.19141467    -0.11400
C76         C  0.29213402  0.84983338  0.19751597     0.05600
C77         C  0.29375680  0.90167254  0.19023934    -0.06700
C78         C  0.33977308  0.92491344  0.18568237    -0.07500
C79         C  0.38417848  0.89936425  0.18516827    -0.02000
C80         C  0.38318554  0.84918489  0.18672259     0.04800
N81         N  0.42814030  0.82207403  0.18433252     0.67300
H82         H  0.33890857  0.78630574  0.19467998     0.16200
H83         H  0.34067633  0.96384575  0.17924702     0.15900
N84         N  0.25083995  0.93239484  0.18254883     0.75000
O85         O  0.45648406  0.81726579  0.23419495    -0.38400
O86         O  0.43660449  0.79840431  0.13521250    -0.38400
O87         O  0.24772349  0.96764447  0.21844121    -0.39100
O88         O  0.22739804  0.93529359  0.12863952    -0.39100
C89         C  0.13358215  0.11519605  0.31359039    -0.11400
C90         C  0.08295256  0.12381454  0.30277266     0.05600
C91         C  0.06627283  0.17158045  0.29698928    -0.06700
C92         C  0.09981036  0.20968472  0.30472876    -0.07500
C93         C  0.15106232  0.20209235  0.32064708    -0.02000
C94         C  0.16771479  0.15306168  0.32041643     0.04800
N95         N  0.21907225  0.14020135  0.32182898     0.67300
H96         H  0.14730702  0.07855587  0.31368273     0.16200
H97         H  0.08491255  0.24540582  0.29510359     0.15900
N98         N  0.01548708  0.18217356  0.28006901     0.75000
O99         O  0.23757942  0.11953945  0.37287874    -0.38400
O100        O  0.23816641  0.13161603  0.26845100    -0.38400
O101        O  0.98679406  0.19529914  0.32308136    -0.39100
O102        O  0.00193917  0.18689540  0.22092581    -0.39100
C103        C  0.14912300  0.90885288  0.27130068    -0.11400
C104        C  0.11080382  0.90771216  0.22420081     0.05600
C105        C  0.11277187  0.87302963  0.17721989    -0.06700
C106        C  0.15410572  0.84238991  0.17605031    -0.07500
C107        C  0.19677241  0.84775704  0.21730334    -0.02000
C108        C  0.19080273  0.87897449  0.26989146     0.04800
N109        N  0.22486283  0.88009077  0.32444948     0.67300
H110        H  0.14675089  0.93324449  0.31051047     0.16200
H111        H  0.15131011  0.81379006  0.14282725     0.15900
N112        N  0.07194071  0.86646608  0.13260352     0.75000
O113        O  0.21433280  0.85514806  0.37500447    -0.38400
O114        O  0.25056173  0.91748776  0.33147556    -0.38400
O115        O  0.07246904  0.88685144  0.07652066    -0.39100
O116        O  0.04095230  0.83338200  0.14433597    -0.39100
C117        C  0.89165946  0.85414640  0.34147345    -0.11400
C118        C  0.88759932  0.88448281  0.28503828     0.05600
C119        C  0.85134326  0.87352682  0.23701454    -0.06700
C120        C  0.82258139  0.83216279  0.24484551    -0.07500
C121        C  0.83092562  0.79744629  0.29641764    -0.02000
C122        C  0.86358756  0.81151387  0.34820805     0.04800
N123        N  0.86865505  0.78357579  0.40832041     0.67300
H124        H  0.91767671  0.86293697  0.38027425     0.16200
H125        H  0.79345440  0.82796805  0.20850258     0.15900
N126        N  0.84184822  0.90395275  0.17978581     0.75000
O127        O  0.90822079  0.76020421  0.42093398    -0.38400
O128        O  0.84227426  0.79451527  0.45493594    -0.38400
O129        O  0.87210093  0.90370518  0.13425882    -0.39100
O130        O  0.79763767  0.91675482  0.16619988    -0.39100
C131        C  0.89136538  0.70964244  0.29917419    -0.11400
C132        C  0.83902801  0.70372712  0.29850485     0.05600
C133        C  0.82091206  0.65536497  0.29601432    -0.06700
C134        C  0.85391511  0.61630791  0.30220776    -0.07500
C135        C  0.90507267  0.62337397  0.30889363    -0.02000
C136        C  0.92389752  0.67033800  0.30644775     0.04800
N137        N  0.97601442  0.67877336  0.31480992     0.67300
H138        H  0.90821117  0.74470749  0.29439821     0.16200
H139        H  0.83924617  0.58000648  0.30340106     0.15900
N140        N  0.76910167  0.64480973  0.28784303     0.75000
O141        O  0.00086270  0.69361764  0.26693712    -0.38400
O142        O  0.99542765  0.67851307  0.37138741    -0.38400
O143        O  0.75239841  0.63560044  0.23191023    -0.39100
O144        O  0.74515939  0.63003502  0.33658791    -0.39100
C145        C  0.71958091  0.74004545  0.22990614    -0.11400
C146        C  0.77153953  0.74345943  0.23122704     0.05600
C147        C  0.79453157  0.74303015  0.16948924    -0.06700
C148        C  0.76591261  0.74434313  0.11119418    -0.07500
C149        C  0.71366510  0.74097110  0.10948792    -0.02000
C150        C  0.69088938  0.74039261  0.17162279     0.04800
N151        N  0.63825118  0.74096881  0.17800786     0.67300
H152        H  0.69997207  0.73708197  0.27469625     0.16200
H153        H  0.78613349  0.74836058  0.06694626     0.15900
N154        N  0.84738106  0.74158752  0.16410180     0.75000
O155        O  0.61736131  0.78113636  0.18307303    -0.38400
O156        O  0.61776351  0.70399806  0.20310362    -0.38400
O157        O  0.86768965  0.70142862  0.15682028    -0.39100
O158        O  0.86989944  0.77926734  0.14518074    -0.39100
C159        C  0.71179852  0.78459068  0.43274634    -0.11400
C160        C  0.71761942  0.74750923  0.48234345     0.05600
C161        C  0.75154731  0.71013532  0.46920923    -0.06700
C162        C  0.77831292  0.71172911  0.41160040    -0.07500
C163        C  0.77057270  0.74719280  0.36039530    -0.02000
C164        C  0.73666751  0.78472702  0.37343606     0.04800
N165        N  0.72729339  0.82461623  0.32801712     0.67300
H166        H  0.68542353  0.81329851  0.43706327     0.16200
H167        H  0.80597740  0.68405153  0.40874026     0.15900
N168        N  0.75498205  0.66313578  0.00831362     0.75000
O169        O  0.68681998  0.82596593  0.29539755    -0.38400
O170        O  0.74929484  0.86381331  0.33747306    -0.38400
O171        O  0.73079680  0.62639850  0.99264192    -0.39100
O172        O  0.79336383  0.65723284  0.04454192    -0.39100
C173        C  0.67394138  0.83121777  0.05286430    -0.11400
C174        C  0.64873234  0.78706865  0.04372145     0.05600
C175        C  0.59511921  0.78909132  0.04119272    -0.06700
C176        C  0.57083693  0.83334103  0.04600030    -0.07500
C177        C  0.59682591  0.87540849  0.05794864    -0.02000
C178        C  0.64882811  0.87440007  0.06096347     0.04800
N179        N  0.67638506  0.91974140  0.57810193     0.67300
H180        H  0.71443539  0.83564423  0.55590107     0.16200
H181        H  0.53056993  0.83396369  0.04633594     0.15900
N182        N  0.56337123  0.74769732  0.04054199     0.75000
O183        O  0.68394326  0.93093990  0.63617368    -0.38400
O184        O  0.69999090  0.94119882  0.53333776    -0.38400
O185        O  0.55819606  0.72252794  0.09248704    -0.39100
O186        O  0.52931186  0.74622372  0.99714639    -0.39100
C187        C  0.61555826  0.12909311  0.12950004    -0.11400
C188        C  0.61666972  0.09255876  0.17800979     0.05600
C189        C  0.65112719  0.09580130  0.23022562    -0.06700
C190        C  0.68689278  0.13291570  0.22841086    -0.07500
C191        C  0.69113901  0.16571872  0.17320553    -0.02000
C192        C  0.65139851  0.16488908  0.12581793     0.04800
N193        N  0.64462786  0.19943662  0.07316156     0.67300
H194        H  0.58636425  0.12950925  0.09194299     0.16200
H195        H  0.71464460  0.13327079  0.26761961     0.15900
N196        N  0.65282221  0.06017301  0.28262244     0.75000
O197        O  0.62812290  0.24044981  0.08435311    -0.38400
O198        O  0.63836192  0.18403101  0.01690570    -0.38400
O199        O  0.67868679  0.02275339  0.27814894    -0.39100
O200        O  0.63639955  0.07005671  0.33706849    -0.39100
C201        C  0.78021514  0.11227847  0.16130187    -0.11400
C202        C  0.78624513  0.16270564  0.16727842     0.05600
C203        C  0.83666128  0.17906314  0.16882766    -0.06700
C204        C  0.87621931  0.14636259  0.17731841    -0.07500
C205        C  0.86800584  0.09706919  0.18154650    -0.02000
C206        C  0.81977588  0.07992369  0.17137415     0.04800
N207        N  0.80996616  0.02954447  0.17276610     0.67300
H208        H  0.74459932  0.09655882  0.14980794     0.16200
H209        H  0.91378541  0.15986494  0.18195534     0.15900
N210        N  0.84962449  0.22844613  0.16075589     0.75000
O211        O  0.80812842  0.00633610  0.22687417    -0.38400
O212        O  0.79269410  0.01106990  0.12214704    -0.38400
O213        O  0.86627402  0.24957334  0.20961477    -0.39100
O214        O  0.86572649  0.24173361  0.10622216    -0.39100
C215        C  0.65301270  0.65687742  0.08517410    -0.11400
C216        C  0.65209875  0.69404556  0.03541055     0.05600
C217        C  0.62453306  0.68450318  0.97697119    -0.06700
C218        C  0.59361161  0.64432046  0.97486584    -0.07500
C219        C  0.59063944  0.61091779  0.02777855    -0.02000
C220        C  0.62244427  0.61633438  0.08222889     0.04800
N221        N  0.62631585  0.57984951  0.13350321     0.67300
H222        H  0.67835138  0.65768640  0.12660789     0.16200
H223        H  0.57298639  0.64156659  0.43343604     0.15900
N224        N  0.62849053  0.71669728  0.42055080     0.75000
O225        O  0.65456693  0.54426245  0.12766427    -0.38400
O226        O  0.60933310  0.58756596  0.18840233    -0.38400
O227        O  0.65002999  0.69980682  0.37317858    -0.39100
O228        O  0.60001796  0.75239906  0.41005851    -0.39100
C229        C  0.26135323  0.73788716  0.14931901    -0.11400
C230        C  0.24184220  0.78499710  0.14648545     0.05600
C231        C  0.22810261  0.80279568  0.08170349    -0.06700
C232        C  0.22179393  0.77147371  0.02990216    -0.07500
C233        C  0.24244824  0.72485866  0.03199057    -0.01200
C234        C  0.26956029  0.71248014  0.09234944     0.04800
N235        N  0.31309305  0.68272828  0.09517402     0.67300
H236        H  0.27884135  0.72407197  0.19442589     0.16200
H237        H  0.20518131  0.78812920  0.48442677     0.15900
N238        N  0.22567344  0.85296208  0.06448888     0.75000
O239        O  0.34960963  0.69583418  0.06166496    -0.38400
O240        O  0.32069389  0.65332090  0.14320480    -0.38400
O241        O  0.26546917  0.87340330  0.04776019    -0.39100
O242        O  0.18502072  0.87054680  0.04229113    -0.39100
C243        C  0.28039632  0.76234736  0.38953125    -0.11400
C244        C  0.23985015  0.73157388  0.40167471     0.05600
C245        C  0.20102932  0.73438591  0.35183019    -0.06700
C246        C  0.20916046  0.75617333  0.28996792    -0.07500
C247        C  0.25040031  0.78541289  0.27599602    -0.02000
C248        C  0.28684950  0.78823039  0.32902046     0.04800
N249        N  0.33081625  0.81687170  0.32531286     0.67300
H250        H  0.30914584  0.76476656  0.42724969     0.16200
H251        H  0.17915138  0.75494830  0.25379851     0.15900
N252        N  0.15027916  0.72321253  0.36491932     0.75000
O253        O  0.32987194  0.85918961  0.34440654    -0.38400
O254        O  0.37214502  0.79545838  0.32603357    -0.38400
O255        O  0.12691053  0.75040967  0.40044581    -0.39100
O256        O  0.12578407  0.69728032  0.32684982    -0.39100
C257        C  0.32235339  0.66046576  0.42077844    -0.11400
C258        C  0.28458698  0.65811075  0.46771037     0.05600
C259        C  0.28491551  0.61490029  0.50975691    -0.06700
C260        C  0.32559625  0.58335276  0.51160510    -0.07500
C261        C  0.36425455  0.58903608  0.46834872    -0.02000
C262        C  0.36102358  0.62660073  0.42036812     0.04800
N263        N  0.39613592  0.63055565  0.36976990     0.67300
H264        H  0.32181389  0.68662587  0.38079331     0.16200
H265        H  0.32599964  0.55272139  0.54631481     0.15900
N266        N  0.24285434  0.59922858  0.54655623     0.75000
O267        O  0.39056533  0.60496729  0.32120607    -0.38400
O268        O  0.42659162  0.65962293  0.87386589    -0.38400
O269        O  0.22370351  0.55879215  0.53622968    -0.39100
O270        O  0.23109453  0.62011550  0.59669486    -0.39100
C271        C  0.11213765  0.62759674  0.48385559    -0.11400
C272        C  0.11550007  0.59606324  0.43272201     0.05600
C273        C  0.15791478  0.59817821  0.39472639    -0.06700
C274        C  0.19515073  0.63100382  0.40736132    -0.07500
C275        C  0.19346348  0.66307792  0.45867595    -0.02000
C276        C  0.15014417  0.66136813  0.49694847     0.04800
N277        N  0.14038560  0.69464526  0.04752481     0.67300
H278        H  0.07894368  0.62736039  0.51222968     0.16200
H279        H  0.22630371  0.63180021  0.37529301     0.15900
N280        N  0.16400805  0.56729831  0.34207335     0.75000
O281        O  0.11502646  0.73195962  0.03282722    -0.38400
O282        O  0.14829320  0.68209671  0.60474639    -0.38400
O283        O  0.15948260  0.58435691  0.28424552    -0.39100
O284        O  0.18266932  0.52600032  0.35314291    -0.39100
C285        C  0.74392526  0.20548418  0.04499843    -0.11400
C286        C  0.74167460  0.23000690  0.10331820     0.05600
C287        C  0.74088583  0.28149316  0.09585141    -0.06700
C288        C  0.73699886  0.30445314  0.03322955    -0.07500
C289        C  0.73846383  0.27994846  0.97489776    -0.02000
C290        C  0.73896724  0.22834425  0.98236456     0.04800
N291        N  0.73378193  0.19757032  0.42954114     0.67300
H292        H  0.74400336  0.16651677  0.04825844     0.16200
H293        H  0.73692836  0.34341673  0.03014265     0.15900
N294        N  0.74812937  0.31248838  0.14892709     0.75000
O295        O  0.75986705  0.16004704  0.42694594    -0.38400
O296        O  0.69326276  0.19992232  0.39717137    -0.38400
O297        O  0.78889487  0.31137231  0.18072829    -0.39100
O298        O  0.72098265  0.34927446  0.15167498    -0.39100
C299        C  0.77776800  0.22218951  0.27953413    -0.11400
C300        C  0.73911120  0.22693660  0.23190057     0.05600
C301        C  0.69970884  0.25860670  0.24628556    -0.06700
C302        C  0.70462851  0.28896951  0.29836911    -0.07500
C303        C  0.74245947  0.28330737  0.34671671    -0.02000
C304        C  0.78209428  0.25193215  0.33227254     0.04800
N305        N  0.82875626  0.25108390  0.36744796     0.67300
H306        H  0.80638086  0.19552218  0.27703488     0.16200
H307        H  0.67696755  0.31667441  0.30059278     0.15900
N308        N  0.65284777  0.25936462  0.21157522     0.75000
O309        O  0.86122195  0.28130678  0.34971865    -0.38400
O310        O  0.84347012  0.21192677  0.39512540    -0.38400
O311        O  0.62113270  0.22800814  0.22803301    -0.39100
O312        O  0.63715962  0.29879503  0.18574958    -0.39100
C313        C  0.70112513  0.39676251  0.42537349    -0.11400
C314        C  0.69445438  0.34712574  0.41278938     0.05600
C315        C  0.64368998  0.33092041  0.41137495    -0.06700
C316        C  0.60423585  0.36332727  0.41782275    -0.07500
C317        C  0.61257097  0.41134234  0.43040038    -0.02000
C318        C  0.66148952  0.42808111  0.43392735     0.04800
N319        N  0.66861613  0.47868460  0.93522382     0.67300
H320        H  0.73743431  0.41212265  0.43337979     0.16200
H321        H  0.56649608  0.34971187  0.41803797     0.15900
N322        N  0.63007293  0.28144782  0.40957162     0.75000
O323        O  0.67067184  0.49459857  0.99150908    -0.38400
O324        O  0.68088125  0.50712645  0.40223112    -0.38400
O325        O  0.61133009  0.26306930  0.46008396    -0.39100
O326        O  0.61481595  0.26582016  0.35614647    -0.39100
C327        C  0.79196495  0.37651084  0.34825002    -0.11400
C328        C  0.78956570  0.34482683  0.40442093     0.05600
C329        C  0.83037115  0.34687043  0.45044144    -0.06700
C330        C  0.86799322  0.38094914  0.44171148    -0.07500
C331        C  0.86844313  0.41284781  0.38761409    -0.02000
C332        C  0.82999071  0.41044768  0.34012960     0.04800
N333        N  0.82692248  0.44433628  0.28569237     0.67300
H334        H  0.76222607  0.37662774  0.31157359     0.16200
H335        H  0.89871549  0.38101197  0.47704023     0.15900
N336        N  0.83787693  0.31330513  0.50411697     0.75000
O337        O  0.83758572  0.43121466  0.23007589    -0.38400
O338        O  0.80372492  0.48330541  0.29068035    -0.38400
O339        O  0.85583822  0.27271301  0.49373894    -0.39100
O340        O  0.84383441  0.32954043  0.55994962    -0.39100
C341        C  0.19943126  0.25935825  0.20706458    -0.11400
C342        C  0.22110616  0.24674779  0.26933562     0.05600
C343        C  0.27102894  0.23029933  0.26816690    -0.06700
C344        C  0.29327380  0.22229571  0.20901348    -0.07500
C345        C  0.27641788  0.24265633  0.14837069    -0.02000
C346        C  0.22774932  0.26348300  0.14970142     0.04800
N347        N  0.20744367  0.29259158  0.09620617     0.67300
H348        H  0.16120734  0.27158941  0.20401642     0.16200
H349        H  0.32499330  0.19965980  0.21348217     0.15900
N350        N  0.30315385  0.22616635  0.32440507     0.75000
O351        O  0.16527094  0.28257172  0.07214823    -0.38400
O352        O  0.22404373  0.33459301  0.08666065    -0.38400
O353        O  0.30949469  0.18589683  0.35434076    -0.39100
O354        O  0.33683190  0.25741320  0.32886798    -0.39100
C355        C  0.23840908  0.21188311  0.51257064    -0.11400
C356        C  0.27626747  0.24676233  0.52079732     0.05600
C357        C  0.27803826  0.28347674  0.46896706    -0.06700
C358        C  0.25044451  0.27840398  0.41123464    -0.07500
C359        C  0.21677504  0.24139143  0.39949063    -0.02000
C360        C  0.20815092  0.20927124  0.45499754     0.04800
N361        N  0.16699247  0.17656787  0.45810760     0.67300
H362        H  0.23254189  0.18588963  0.05260656     0.16200
H363        H  0.25556324  0.30608239  0.37260278     0.15900
N364        N  0.30455234  0.32811840  0.47261087     0.75000
O365        O  0.17574768  0.13228745  0.46884094    -0.38400
O366        O  0.12551429  0.19218894  0.47448668    -0.38400
O367        O  0.33452345  0.33964616  0.42853543    -0.39100
O368        O  0.28603165  0.36155451  0.50306231    -0.39100
C369        C  0.34562407  0.32346721  0.12696926    -0.11400
C370        C  0.34924983  0.28482728  0.08497703     0.05600
C371        C  0.38978030  0.28631002  0.04110856    -0.06700
C372        C  0.42016606  0.32669439  0.03588512    -0.07500
C373        C  0.41309109  0.36632970  0.07322955    -0.02000
C374        C  0.37727527  0.36371689  0.12154189     0.04800
N375        N  0.37080368  0.40258704  0.16314651     0.67300
H376        H  0.31716238  0.32386119  0.16276203     0.16200
H377        H  0.44892839  0.32759358  0.00013869     0.15900
N378        N  0.40141625  0.24733889  0.00130824     0.75000
O379        O  0.34144774  0.42989141  0.66467772    -0.38400
O380        O  0.38882173  0.39949472  0.22048869    -0.38400
O381        O  0.38244611  0.24647608  0.94479746    -0.39100
O382        O  0.44044168  0.22321798  0.01445608    -0.39100
C383        C  0.33927550  0.15855237  0.04509517    -0.11400
C384        C  0.34532037  0.19513714  0.09084014     0.05600
C385        C  0.38812496  0.18899177  0.13525258    -0.06700
C386        C  0.41605129  0.14657862  0.13747280    -0.07500
C387        C  0.40745867  0.11042710  0.09415199    -0.02000
C388        C  0.36952271  0.11718987  0.04634501     0.04800
N389        N  0.36034260  0.08200866  0.99922950     0.67300
H390        H  0.31231829  0.16146210  0.00563643     0.16200
H391        H  0.44691519  0.14291308  0.17249377     0.15900
N392        N  0.40676063  0.22561167  0.17675460     0.75000
O393        O  0.33306390  0.04633049  0.01318594    -0.38400
O394        O  0.37116626  0.09129180  0.94077597    -0.38400
O395        O  0.40722794  0.21688367  0.23752085    -0.39100
O396        O  0.43997440  0.25350607  0.15513030    -0.39100
C397        C  0.31076562  0.24329278  0.58559766    -0.01600
C398        C  0.73930687  0.31243623  0.90954389    -0.01600
C399        C  0.23868757  0.69397069  0.96775341    -0.01600
O400        O  0.42839118  0.53823529  0.93041880    -0.57000
C401        C  0.56863509  0.44053796  0.94885384     0.75700
O402        O  0.54590591  0.54445270  0.57318509    -0.58100
C403        C  0.40457608  0.55312310  0.97805858     0.75600
C404        C  0.44027795  0.41185383  0.55309558     0.78000
Cd405      Cd  0.49243781  0.49459621  0.50345905     1.37500
O406        O  0.53109010  0.45310301  0.91258964    -0.57000
O407        O  0.44442838  0.42107750  0.99319091    -0.55800
C408        C  0.55848468  0.57171528  0.52467645     0.78000
O409        O  0.45937567  0.44041919  0.59350250    -0.58100
O410        O  0.57075196  0.45232567  0.51103232    -0.56600
O411        O  0.42263655  0.54220290  0.53397424    -0.56600
O412        O  0.53524113  0.56219881  0.96773607    -0.55800
C413        C  0.74024532  0.19770193  0.66868232    -0.01600
C414        C  0.68361856  0.74455301  0.54414367    -0.01600
C415        C  0.80505701  0.74741262  0.79784491    -0.01600
O416        O  0.93919690  0.04661889  0.66976053    -0.57000
C417        C  0.06832581  0.94085830  0.73799254     0.75700
O418        O  0.02831193  0.05974622  0.83704713    -0.58100
C419        C  0.91098921  0.06694792  0.70880988     0.75600
C420        C  0.92142502  0.92742941  0.78642616     0.78000
Cd421      Cd  0.98832731  0.00519962  0.75881911     1.37500
O422        O  0.04290933  0.95893914  0.68940886    -0.57000
O423        O  0.93222488  0.94307242  0.72982482    -0.55800
C424        C  0.04986560  0.08474961  0.79248084     0.78000
O425        O  0.94180476  0.94870355  0.83397332    -0.58100
O426        O  0.05666678  0.95350077  0.79389766    -0.56600
O427        O  0.91898069  0.05844215  0.76938666    -0.56600
O428        O  0.04278580  0.07266389  0.73431141    -0.55800
C429        C  0.24375630  0.81573352  0.71088817    -0.01600
O430        O  0.45478501  0.94432790  0.71698987    -0.57000
C431        C  0.58054818  0.05326155  0.66941977     0.75700
O432        O  0.53985385  0.94389288  0.54674569    -0.58100
C433        C  0.42819956  0.92451007  0.67354503     0.75600
C434        C  0.43700065  0.06670045  0.60488162     0.78000
Cd435      Cd  0.50444988  0.98820890  0.63501501     1.37500
O436        O  0.56198414  0.02751798  0.71561652    -0.57000
O437        O  0.45115415  0.05256383  0.66193857    -0.55800
C438        C  0.56812141  0.91838212  0.58545326     0.78000
O439        O  0.45303005  0.04306994  0.55832911    -0.58100
O440        O  0.56520233  0.04547741  0.61201110    -0.56600
O441        O  0.43941922  0.93208808  0.61470350    -0.56600
O442        O  0.56788538  0.92673446  0.64542195    -0.55800
C443        C  0.18829810  0.24707166  0.83197651    -0.01600
O444        O  0.93309827  0.45994464  0.92849885    -0.57000
C445        C  0.07127638  0.56307970  0.91661844     0.75700
O446        O  0.04949835  0.44874320  0.80399400    -0.58100
C447        C  0.90898356  0.44567635  0.87860665     0.75600
C448        C  0.93813605  0.58096997  0.82082314     0.78000
Cd449      Cd  0.99615802  0.50147301  0.86673789     1.37500
O450        O  0.04067705  0.54406180  0.95643834    -0.57000
O451        O  0.94060772  0.56619509  0.88012608    -0.55800
C452        C  0.05949445  0.41944646  0.85239918     0.78000
O453        O  0.96337477  0.55862188  0.78026769    -0.58100
O454        O  0.06531471  0.55333528  0.85734101    -0.56600
O455        O  0.92524159  0.45823798  0.82302239    -0.56600
O456        O  0.04020625  0.42854634  0.90591866    -0.55800
C457        C  0.12083513  0.29666422  0.88309020    -0.11400
C458        C  0.15856133  0.29627329  0.83674711     0.05600
C459        C  0.16663405  0.34156290  0.80147933    -0.06700
C460        C  0.13261637  0.37980958  0.80565963    -0.07500
C461        C  0.09278340  0.37703762  0.84754651    -0.02000
C462        C  0.08783734  0.33510413  0.88778440     0.04800
N463        N  0.04761776  0.32951548  0.93124666     0.67300
H464        H  0.11425874  0.26508470  0.91337184     0.16200
H465        H  0.13899084  0.41325638  0.77789428     0.15900
N466        N  0.21014696  0.35248188  0.76526209     0.75000
O467        O  0.00515322  0.31821906  0.90929533    -0.38400
O468        O  0.05645853  0.32678436  0.99183861    -0.38400
O469        O  0.20397596  0.36761818  0.70686747    -0.39100
O470        O  0.24863128  0.36618846  0.79546743    -0.39100
C471        C  0.33568871  0.82352507  0.68914306    -0.11400
C472        C  0.29060277  0.84808694  0.69949217     0.05600
C473        C  0.29297675  0.89998593  0.69681921    -0.06700
C474        C  0.33939023  0.92283679  0.69436176    -0.07500
C475        C  0.38324952  0.89712957  0.68866849    -0.02000
C476        C  0.38117992  0.84730269  0.68371723     0.04800
N477        N  0.42520563  0.82014291  0.67433882     0.67300
H478        H  0.33654080  0.78476095  0.68885056     0.16200
H479        H  0.34092036  0.96184291  0.69229860     0.15900
N480        N  0.25041923  0.93132035  0.69152081     0.75000
O481        O  0.45277828  0.80712439  0.72269001    -0.38400
O482        O  0.43238050  0.80305400  0.61983518    -0.38400
O483        O  0.24920283  0.96720144  0.72659799    -0.39100
O484        O  0.22332755  0.93251327  0.64050749    -0.39100
C485        C  0.13361439  0.11655203  0.81814854    -0.11400
C486        C  0.08313679  0.12550239  0.80648356     0.05600
C487        C  0.06711089  0.17336512  0.79724196    -0.06700
C488        C  0.10102322  0.21129179  0.80359619    -0.07500
C489        C  0.15192361  0.20342361  0.82121874    -0.02000
C490        C  0.16813577  0.15423812  0.82297795     0.04800
N491        N  0.21937153  0.14095053  0.82462796     0.67300
H492        H  0.14693690  0.07971496  0.82020877     0.16200
H493        H  0.08676644  0.24705566  0.79203581     0.15900
N494        N  0.01667120  0.18415074  0.77857091     0.75000
O495        O  0.23759018  0.12001628  0.87566951    -0.38400
O496        O  0.23853511  0.13238289  0.77129547    -0.38400
O497        O  0.98670321  0.19544015  0.82114003    -0.39100
O498        O  0.00504046  0.19198816  0.71919004    -0.39100
C499        C  0.14901382  0.90656112  0.77838489    -0.11400
C500        C  0.11046224  0.90724664  0.73138691     0.05600
C501        C  0.11159108  0.87363707  0.68285340    -0.06700
C502        C  0.15248848  0.84259637  0.67970285    -0.07500
C503        C  0.19539970  0.84628243  0.72091626    -0.02000
C504        C  0.19016938  0.87610319  0.77520719     0.04800
N505        N  0.22464991  0.87524239  0.82950398     0.67300
H506        H  0.14731830  0.92999239  0.81874097     0.16200
H507        H  0.14922831  0.81502243  0.64497836     0.15900
N508        N  0.07020982  0.86847574  0.63867214     0.75000
O509        O  0.21327815  0.85057417  0.87992668    -0.38400
O510        O  0.25290257  0.91089382  0.83642737    -0.38400
O511        O  0.07154506  0.88757112  0.58189615    -0.39100
O512        O  0.03668096  0.83829635  0.65238890    -0.39100
C513        C  0.89475245  0.85191422  0.84768182    -0.11400
C514        C  0.88786904  0.88524273  0.79467310     0.05600
C515        C  0.85008683  0.87615179  0.74790950    -0.06700
C516        C  0.82335715  0.83346660  0.75222586    -0.07500
C517        C  0.83366680  0.79658185  0.80015145    -0.02000
C518        C  0.86754421  0.80852609  0.85180913     0.04800
N519        N  0.87492904  0.77749425  0.90888199     0.67300
H520        H  0.92214179  0.85904896  0.88563232     0.16200
H521        H  0.79331457  0.83048194  0.71683063     0.15900
N522        N  0.83592564  0.91037282  0.69650539     0.75000
O523        O  0.91607773  0.75622706  0.91850877    -0.38400
O524        O  0.84824775  0.78365054  0.95703658    -0.38400
O525        O  0.86269871  0.91494773  0.64741449    -0.39100
O526        O  0.79060017  0.92169113  0.68990997    -0.39100
C527        C  0.89326717  0.70878367  0.79507644    -0.11400
C528        C  0.84094023  0.70307760  0.79664976     0.05600
C529        C  0.82244338  0.65498977  0.79235572    -0.06700
C530        C  0.85518526  0.61577049  0.79655638    -0.07500
C531        C  0.90642218  0.62249151  0.80185592    -0.02000
C532        C  0.92563453  0.66928728  0.79924855     0.04800
N533        N  0.97804774  0.67730006  0.80394156     0.67300
H534        H  0.91017589  0.74384780  0.79052368     0.16200
H535        H  0.84026577  0.57956630  0.79739583     0.15900
N536        N  0.77058617  0.64480514  0.78388111     0.75000
O537        O  0.00054111  0.69456899  0.75528864    -0.38400
O538        O  0.00045707  0.67336425  0.85867919    -0.38400
O539        O  0.75374328  0.63772890  0.72730403    -0.39100
O540        O  0.74707619  0.62758669  0.83169350    -0.39100
C541        C  0.72187243  0.74091961  0.73114329    -0.11400
C542        C  0.77375092  0.74507249  0.73197593     0.05600
C543        C  0.79627983  0.74747160  0.66984685    -0.06700
C544        C  0.76713549  0.74965244  0.61192957    -0.07500
C545        C  0.71501147  0.74461653  0.61084718    -0.02000
C546        C  0.69275671  0.74262385  0.67331061     0.04800
N547        N  0.64022605  0.74296198  0.68063297     0.67300
H548        H  0.70254584  0.73646051  0.77604160     0.16200
H549        H  0.78675577  0.75561696  0.56743364     0.15900
N550        N  0.84909254  0.74815961  0.66368457     0.75000
O551        O  0.61937648  0.78304374  0.68654224    -0.38400
O552        O  0.62019332  0.70587530  0.70611062    -0.38400
O553        O  0.87078390  0.70919463  0.65344866    -0.39100
O554        O  0.87002191  0.78718534  0.64673639    -0.39100
C555        C  0.71299014  0.78199387  0.93281064    -0.11400
C556        C  0.71732661  0.74394571  0.98106479     0.05600
C557        C  0.75040428  0.70600527  0.96704168    -0.06700
C558        C  0.77841820  0.70844153  0.91029343    -0.07500
C559        C  0.77259657  0.74555164  0.86089900    -0.02000
C560        C  0.73921388  0.78332918  0.87476253     0.04800
N561        N  0.73200489  0.82500319  0.83181994     0.67300
H562        H  0.68693854  0.81094138  0.93706456     0.16200
H563        H  0.80531164  0.68016899  0.90643729     0.15900
N564        N  0.75905644  0.66892346  0.51295752     0.75000
O565        O  0.69408557  0.82720007  0.79423231    -0.38400
O566        O  0.75207362  0.86392807  0.84747710    -0.38400
O567        O  0.73515881  0.63105437  0.50179674    -0.39100
O568        O  0.79955222  0.66498280  0.54530337    -0.39100
C569        C  0.67419416  0.83455857  0.55462137    -0.11400
C570        C  0.64929249  0.79014528  0.54612532     0.05600
C571        C  0.59568716  0.79150595  0.54556963    -0.06700
C572        C  0.57106001  0.83534013  0.55192184    -0.07500
C573        C  0.59676791  0.87756590  0.56369289    -0.02000
C574        C  0.64877448  0.87726630  0.56481549     0.04800
N575        N  0.67676695  0.91674622  0.07385585     0.67300
H576        H  0.71418749  0.83184006  0.05563928     0.16200
H577        H  0.53083187  0.83547055  0.55346280     0.15900
N578        N  0.56438275  0.74978945  0.54523144     0.75000
O579        O  0.68327231  0.92889029  0.13169145    -0.38400
O580        O  0.70204256  0.93669140  0.02954706    -0.38400
O581        O  0.55972017  0.72460256  0.59726287    -0.39100
O582        O  0.52995508  0.74815954  0.50236805    -0.39100
C583        C  0.61663582  0.12853140  0.62870690    -0.11400
C584        C  0.61677121  0.09269940  0.67824562     0.05600
C585        C  0.65155620  0.09582056  0.73013944    -0.06700
C586        C  0.68799048  0.13229483  0.72760678    -0.07500
C587        C  0.69238456  0.16503786  0.67237069    -0.02000
C588        C  0.65292865  0.16393258  0.62463315     0.04800
N589        N  0.64659355  0.19820972  0.57161139     0.67300
H590        H  0.58759050  0.12901212  0.59096712     0.16200
H591        H  0.71567782  0.13263984  0.76688759     0.15900
N592        N  0.65251289  0.06093540  0.78343141     0.75000
O593        O  0.63010490  0.23933285  0.58226572    -0.38400
O594        O  0.64086062  0.18258470  0.51540172    -0.38400
O595        O  0.67799326  0.02312905  0.78027209    -0.39100
O596        O  0.63601612  0.07191690  0.83738883    -0.39100
C597        C  0.78279753  0.11363839  0.66170468    -0.11400
C598        C  0.78789908  0.16399575  0.66833334     0.05600
C599        C  0.83813960  0.18110621  0.67232224    -0.06700
C600        C  0.87793334  0.14874683  0.68267454    -0.07500
C601        C  0.87022504  0.09933060  0.68607056    -0.02000
C602        C  0.82252533  0.08183700  0.67347391     0.04800
N603        N  0.81290690  0.03154460  0.67755826     0.67300
H604        H  0.74761090  0.09745803  0.64912014     0.16200
H605        H  0.91516295  0.16258549  0.68976987     0.15900
N606        N  0.85073775  0.23079777  0.66671688     0.75000
O607        O  0.80428825  0.01156699  0.73239301    -0.38400
O608        O  0.80107056  0.01055333  0.62646783    -0.38400
O609        O  0.86373899  0.25138341  0.71767843    -0.39100
O610        O  0.87045946  0.24509148  0.61475169    -0.39100
C611        C  0.65489453  0.65977004  0.58712103    -0.11400
C612        C  0.65329587  0.69708097  0.53750971     0.05600
C613        C  0.62528964  0.68738306  0.47945429    -0.06700
C614        C  0.59507993  0.64665896  0.47743078    -0.07500
C615        C  0.59285434  0.61301732  0.53018047    -0.02000
C616        C  0.62465683  0.61892824  0.58450392     0.04800
N617        N  0.62876949  0.58274855  0.63611942     0.67300
H618        H  0.68051771  0.66067911  0.62820949     0.16200
H619        H  0.57170774  0.63939625  0.93066808     0.15900
N620        N  0.62896115  0.71337126  0.91786720     0.75000
O621        O  0.66063594  0.54974590  0.63334814    -0.38400
O622        O  0.60844634  0.58930975  0.68930688    -0.38400
O623        O  0.65135114  0.69599851  0.87151718    -0.39100
O624        O  0.60071366  0.74906913  0.90593031    -0.39100
C625        C  0.25917786  0.73727171  0.64889923    -0.11400
C626        C  0.23936938  0.78427306  0.64726148     0.05600
C627        C  0.22607651  0.80315613  0.58274548    -0.06700
C628        C  0.22145837  0.77283649  0.52946276    -0.07500
C629        C  0.24291054  0.72652154  0.53065452    -0.01200
C630        C  0.26926051  0.71353861  0.59119025     0.04800
N631        N  0.31417883  0.68577366  0.59362413     0.67300
H632        H  0.27623170  0.72275966  0.69390923     0.16200
H633        H  0.20494194  0.78622091  0.98494781     0.15900
N634        N  0.22256929  0.85358787  0.56745855     0.75000
O635        O  0.35010151  0.70078145  0.56030929    -0.38400
O636        O  0.32300465  0.65609608  0.64102161    -0.38400
O637        O  0.26203298  0.87546421  0.55271649    -0.39100
O638        O  0.18174666  0.87072757  0.54518171    -0.39100
C639        C  0.27971631  0.75905102  0.88981335    -0.11400
C640        C  0.23857369  0.72925097  0.90300470     0.05600
C641        C  0.19925987  0.73273807  0.85390362    -0.06700
C642        C  0.20706705  0.75430840  0.79174416    -0.07500
C643        C  0.24885277  0.78264135  0.77684797    -0.02000
C644        C  0.28623496  0.78420555  0.82879913     0.04800
N645        N  0.33170472  0.81021317  0.82292521     0.67300
H646        H  0.30906494  0.76085157  0.92684697     0.16200
H647        H  0.17647818  0.75388570  0.75632380     0.15900
N648        N  0.14847309  0.72295066  0.86836586     0.75000
O649        O  0.33387304  0.85283934  0.84087245    -0.38400
O650        O  0.37159178  0.78653774  0.82152562    -0.38400
O651        O  0.12609184  0.75168664  0.90279398    -0.39100
O652        O  0.12303980  0.69645382  0.83207956    -0.39100
C653        C  0.31978141  0.65713530  0.92204757    -0.11400
C654        C  0.28240678  0.65549724  0.96944389     0.05600
C655        C  0.28227568  0.61238848  0.01173520    -0.06700
C656        C  0.32249694  0.58027831  0.01327956    -0.07500
C657        C  0.36107966  0.58570178  0.96985188    -0.02000
C658        C  0.35815231  0.62315482  0.92187892     0.04800
N659        N  0.39381183  0.62727928  0.87200729     0.67300
H660        H  0.31936305  0.68288510  0.88164538     0.16200
H661        H  0.32276404  0.54968292  0.04804480     0.15900
N662        N  0.24028325  0.59758779  0.04930351     0.75000
O663        O  0.38649850  0.60532871  0.82044571    -0.38400
O664        O  0.42531430  0.66602645  0.36669879    -0.38400
O665        O  0.22061451  0.55718363  0.04022006    -0.39100
O666        O  0.22858976  0.61964945  0.09850244    -0.39100
C667        C  0.10957466  0.62717745  0.98609658    -0.11400
C668        C  0.11311528  0.59470490  0.93601757     0.05600
C669        C  0.15604358  0.59552874  0.89909899    -0.06700
C670        C  0.19288760  0.62898793  0.91015291    -0.07500
C671        C  0.19143492  0.66161022  0.96083069    -0.02000
C672        C  0.14806740  0.66060075  0.99904942     0.04800
N673        N  0.14186162  0.69514312  0.54556181     0.67300
H674        H  0.07611233  0.62774472  0.01387326     0.16200
H675        H  0.22405722  0.62910707  0.87815351     0.15900
N676        N  0.16352707  0.56184283  0.85007529     0.75000
O677        O  0.11594836  0.73211196  0.53091179    -0.38400
O678        O  0.14696329  0.68176764  0.10674667    -0.38400
O679        O  0.16006700  0.57572572  0.79083247    -0.39100
O680        O  0.18249352  0.52130039  0.86586413    -0.39100
C681        C  0.74612172  0.20563764  0.54523532    -0.11400
C682        C  0.74280882  0.23011608  0.60354492     0.05600
C683        C  0.74153683  0.28154932  0.59618034    -0.06700
C684        C  0.73837816  0.30448631  0.53361713    -0.07500
C685        C  0.74061024  0.28003590  0.47523706    -0.02000
C686        C  0.74180914  0.22854780  0.48257370     0.04800
N687        N  0.72940473  0.19718474  0.92976383     0.67300
H688        H  0.74668219  0.16667200  0.54835846     0.16200
H689        H  0.73825165  0.34342580  0.53079667     0.15900
N690        N  0.74727101  0.31258570  0.64943233     0.75000
O691        O  0.75380160  0.15856827  0.92762277    -0.38400
O692        O  0.68894885  0.20079672  0.89745440    -0.38400
O693        O  0.78769464  0.31243759  0.68194431    -0.39100
O694        O  0.71916172  0.34874458  0.65158616    -0.39100
C695        C  0.77576918  0.22119501  0.78120234    -0.11400
C696        C  0.73836565  0.22673464  0.73207184     0.05600
C697        C  0.69846138  0.25806144  0.74569982    -0.06700
C698        C  0.70245615  0.28821440  0.79809600    -0.07500
C699        C  0.74000018  0.28272720  0.84690871    -0.02000
C700        C  0.77944963  0.25087095  0.83385674     0.04800
N701        N  0.82522779  0.24917599  0.87091411     0.67300
H702        H  0.80396761  0.19396184  0.77991313     0.16200
H703        H  0.67439395  0.31557247  0.80013264     0.15900
N704        N  0.65186902  0.25825787  0.71036937     0.75000
O705        O  0.85926767  0.27766286  0.85318092    -0.38400
O706        O  0.83769029  0.21028627  0.90123166    -0.38400
O707        O  0.62048541  0.22646890  0.72641345    -0.39100
O708        O  0.63577256  0.29752057  0.68449432    -0.39100
C709        C  0.69843387  0.39721351  0.92070507    -0.11400
C710        C  0.69200426  0.34700126  0.91162470     0.05600
C711        C  0.64129460  0.33062435  0.91131324    -0.06700
C712        C  0.60178056  0.36303280  0.91688122    -0.07500
C713        C  0.60988999  0.41150053  0.92636908    -0.02000
C714        C  0.65864202  0.42881001  0.92712602     0.04800
N715        N  0.67177866  0.47693201  0.44806825     0.67300
H716        H  0.73462772  0.41312379  0.92720181     0.16200
H717        H  0.56414484  0.34922177  0.91857781     0.15900
N718        N  0.62765851  0.28113194  0.91101850     0.75000
O719        O  0.68092866  0.48758677  0.50603409    -0.38400
O720        O  0.68396872  0.50450603  0.88788391    -0.38400
O721        O  0.60800063  0.26389682  0.96158880    -0.39100
O722        O  0.61310171  0.26455154  0.85785758    -0.39100
C723        C  0.78991145  0.37565162  0.84614212    -0.11400
C724        C  0.78723679  0.34478502  0.90316765     0.05600
C725        C  0.82786137  0.34771641  0.94924983    -0.06700
C726        C  0.86498225  0.38225039  0.94040255    -0.07500
C727        C  0.86567551  0.41338335  0.88561522    -0.02000
C728        C  0.82774756  0.40983733  0.83759347     0.04800
N729        N  0.82498544  0.44277688  0.78209708     0.67300
H730        H  0.76044642  0.37505567  0.80915452     0.16200
H731        H  0.89555068  0.38281034  0.97592881     0.15900
N732        N  0.83701656  0.31349293  0.00164285     0.75000
O733        O  0.83275525  0.42790313  0.72646158    -0.38400
O734        O  0.80468093  0.48325705  0.78687153    -0.38400
O735        O  0.86158884  0.27659158  0.98989590    -0.39100
O736        O  0.84052152  0.32902157  0.05812280    -0.39100
C737        C  0.20004374  0.26100480  0.70775762    -0.11400
C738        C  0.22188506  0.24793767  0.76980579     0.05600
C739        C  0.27164758  0.23109031  0.76819905    -0.06700
C740        C  0.29342199  0.22299504  0.70872941    -0.07500
C741        C  0.27635494  0.24356011  0.64817177    -0.02000
C742        C  0.22799780  0.26485323  0.65010420     0.04800
N743        N  0.20771468  0.29418348  0.59686359     0.67300
H744        H  0.16193839  0.27362479  0.70503440     0.16200
H745        H  0.32503102  0.19996445  0.71295192     0.15900
N746        N  0.30389664  0.22624497  0.82436735     0.75000
O747        O  0.16604119  0.28361339  0.57179538    -0.38400
O748        O  0.22326294  0.33670688  0.58903613    -0.38400
O749        O  0.31005484  0.18567031  0.85353293    -0.39100
O750        O  0.33770247  0.25730757  0.82966866    -0.39100
C751        C  0.23928893  0.21189306  0.01280952    -0.11400
C752        C  0.27742736  0.24637180  0.02125026     0.05600
C753        C  0.27962244  0.28324266  0.96965003    -0.06700
C754        C  0.25184873  0.27874202  0.91188641    -0.07500
C755        C  0.21765592  0.24215892  0.90012001    -0.02000
C756        C  0.20871115  0.21000976  0.95553895     0.04800
N757        N  0.16688044  0.17813581  0.95917759     0.67300
H758        H  0.23188725  0.18592786  0.55254989     0.16200
H759        H  0.25735659  0.30615347  0.87356387     0.15900
N760        N  0.30715394  0.32731415  0.97327780     0.75000
O761        O  0.17482903  0.13374186  0.97020564    -0.38400
O762        O  0.12601682  0.19458933  0.97646761    -0.38400
O763        O  0.33745805  0.33814233  0.92932328    -0.39100
O764        O  0.28959421  0.36109908  0.00402114    -0.39100
C765        C  0.34632642  0.32386265  0.62673209    -0.11400
C766        C  0.34860378  0.28585624  0.58348753     0.05600
C767        C  0.38831718  0.28772408  0.53841272    -0.06700
C768        C  0.41850387  0.32831068  0.53252052    -0.07500
C769        C  0.41320185  0.36714219  0.57193139    -0.02000
C770        C  0.37894236  0.36349830  0.62215618     0.04800
N771        N  0.37652861  0.39976593  0.66854404     0.67300
H772        H  0.31908380  0.32360898  0.66415390     0.16200
H773        H  0.44629443  0.32962713  0.49548906     0.15900
N774        N  0.39933332  0.24896078  0.49799272     0.75000
O775        O  0.34066246  0.43599242  0.14649946    -0.38400
O776        O  0.40381280  0.39612897  0.71949273    -0.38400
O777        O  0.38502554  0.25189990  0.43925008    -0.39100
O778        O  0.43604873  0.22221035  0.51365497    -0.39100
C779        C  0.33840951  0.15909018  0.54485209    -0.11400
C780        C  0.34469696  0.19605616  0.59000986     0.05600
C781        C  0.38740562  0.19002551  0.63447446    -0.06700
C782        C  0.41458301  0.14715989  0.63811227    -0.07500
C783        C  0.40555477  0.11050358  0.59569046    -0.02000
C784        C  0.36811253  0.11731335  0.54722650     0.04800
N785        N  0.35912638  0.08194020  0.50033186     0.67300
H786        H  0.31180774  0.16203632  0.50498097     0.16200
H787        H  0.44528122  0.14354449  0.67338958     0.15900
N788        N  0.40663611  0.22720705  0.67456146     0.75000
O789        O  0.32873382  0.04837368  0.51227533    -0.38400
O790        O  0.37384752  0.08940246  0.44315724    -0.38400
O791        O  0.40695345  0.21983683  0.73555107    -0.39100
O792        O  0.44015451  0.25425102  0.65183449    -0.39100
loop_ 
_geom_bond_atom_site_label_1 
_geom_bond_atom_site_label_2 
_geom_bond_distance 
_geom_bond_site_symmetry_2 
_ccdc_geom_bond_type 
C1          C345   1.611       .  S
C1          C370   1.559       .  S
C1          C384   1.600       .  S
C1          C752   1.599       .  S
C2          C303   1.573       .  S
C2          C314   1.599       .  S
C2          C328   1.575       .  S
C2          C685   1.582       .  S
C3          C244   1.614       .  S
C3          C258   1.593       .  S
C3          C275   1.565       .  S
C3          C629   1.614       .  S
O4            C7   1.276       .  A
O4         Cd405   2.502       .  S
C5           O10   1.277       .  A
C5          O410   1.268       .  A
C5          C317   1.476       .  S
O6           C12   1.278       .  A
O6           Cd9   2.462       .  S
C7          O411   1.269       .  A
C7          C261   1.486       .  S
C8           O13   1.276       .  A
C8          O407   1.269   1_554  A
C8          C373   1.477       .  S
Cd9          O15   2.413       .  S
Cd9          O14   2.405       .  S
Cd9          O13   2.502       .  S
Cd9         O400   2.484   1_554  S
Cd9         O412   2.362   1_554  S
Cd9         O406   2.489   1_554  S
Cd9         O407   2.365   1_554  S
O10        Cd405   2.490       .  S
O11         C404   1.269       .  A
O11        Cd405   2.380       .  S
C12         O412   1.269   1_554  A
C12         C219   1.480       .  S
O14         C401   1.268   1_554  A
O15         C403   1.268   1_554  A
O16         C408   1.269       .  A
O16        Cd405   2.368       .  S
C17         C191   1.577       .  S
C17         C202   1.592       .  S
C17         C286   1.584       .  S
C17         C300   1.574       .  S
C18         C149   1.591       .  S
C18         C174   1.575       .  S
C18         C216   1.559       .  S
C18         C556   1.591   1_554  S
C19         C121   1.574       .  S
C19         C132   1.571       .  S
C19         C146   1.580       .  S
C19         C163   1.588       .  S
O20          C23   1.277       .  A
O20         Cd25   2.465       .  S
C21          O30   1.270       .  A
C21          O26   1.277       .  A
C21         C104   1.481       .  S
O22          C28   1.277       .  A
O22         Cd25   2.493   1_455  S
C23          O31   1.270       .  A
C23         C205   1.469       .  S
C24          O29   1.279       .  A
C24          O27   1.267       .  A
C24         C118   1.488       .  S
Cd25         O32   2.432   1_655  S
Cd25         O31   2.397       .  S
Cd25         O30   2.391   1_645  S
Cd25         O26   2.485   1_645  S
Cd25         O29   2.497   1_545  S
Cd25         O27   2.386   1_545  S
C28          O32   1.270       .  A
C28          C90   1.481       .  S
C33          C76   1.562       .  S
C33         C107   1.579       .  S
C33         C230   1.613       .  S
C33         C247   1.604       .  S
O34          C37   1.275       .  A
O34         Cd39   2.459       .  S
C35          O44   1.270       .  A
C35          O40   1.276       .  A
C35         C188   1.480       .  S
O36          C42   1.275       .  A
O36         Cd39   2.478       .  S
C37          O45   1.266       .  A
C37          C79   1.461       .  S
C38          O43   1.277       .  A
C38          O41   1.268       .  A
C38         C387   1.486       .  S
Cd39         O46   2.412       .  S
Cd39         O45   2.374       .  S
Cd39         O44   2.326   1_565  S
Cd39         O40   2.520   1_565  S
Cd39         O43   2.524   1_565  S
Cd39         O41   2.393   1_565  S
C42          O46   1.268       .  A
C42         C177   1.471       .  S
C47          C62   1.597       .  S
C47          C93   1.582       .  S
C47         C342   1.591       .  S
C47         C359   1.590       .  S
O48          C51   1.279       .  A
O48         Cd53   2.412       .  S
C49          O58   1.270       .  A
C49          O54   1.277       .  A
C49         C272   1.486       .  S
O50          C56   1.278       .  A
O50         Cd53   2.491   1_455  S
C51          O59   1.272       .  A
C51         C331   1.477       .  S
C52          O57   1.279       .  A
C52          O55   1.270       .  A
C52         C135   1.471       .  S
Cd53         O60   2.446   1_655  S
Cd53         O59   2.419       .  S
Cd53         O58   2.369   1_655  S
Cd53         O54   2.504   1_655  S
Cd53         O57   2.470       .  S
Cd53         O55   2.393       .  S
C56          O60   1.271       .  A
C56          C65   1.494       .  S
C61          C62   1.417       .  A
C61          C66   1.401       .  A
C61          H68   1.071       .  S
C62          C63   1.443       .  A
C63          C64   1.412       .  A
C63          N70   1.433       .  S
C64          C65   1.398       .  A
C64          H69   1.084       .  S
C65          C66   1.407       .  A
C66          N67   1.431       .  S
N67          O71   1.262       .  A
N67          O72   1.262       .  A
N70          O74   1.261       .  A
N70          O73   1.261       .  A
C75          C76   1.420       .  A
C75          C80   1.397       .  A
C75          H82   1.080       .  S
C76          C77   1.443       .  A
C77          C78   1.401       .  A
C77          N84   1.438       .  S
C78          C79   1.392       .  A
C78          H83   1.085       .  S
C79          C80   1.395       .  A
C80          N81   1.430       .  S
N81          O85   1.262       .  A
N81          O86   1.262       .  A
N84          O88   1.259       .  A
N84          O87   1.262       .  A
C89          C90   1.394       .  A
C89          C94   1.408       .  A
C89          H96   1.085       .  S
C90          C91   1.401       .  A
C91          C92   1.405       .  A
C91          N98   1.428       .  S
C92          C93   1.422       .  A
C92          H97   1.079       .  S
C93          C94   1.437       .  A
C94          N95   1.428       .  S
N95          O99   1.261       .  A
N95         O100   1.262       .  A
N98         O102   1.261       .  A
N98         O101   1.262   1_455  A
C103        C104   1.396       .  A
C103        C108   1.399       .  A
C103        H110   1.084       .  S
C104        C105   1.403       .  A
C105        C106   1.404       .  A
C105        N112   1.429       .  S
C106        C107   1.420       .  A
C106        H111   1.077       .  S
C107        C108   1.435       .  A
C108        N109   1.430       .  S
N109        O113   1.262       .  A
N109        O114   1.261       .  A
N112        O116   1.262       .  A
N112        O115   1.262       .  A
C117        C118   1.403       .  A
C117        C122   1.410       .  A
C117        H124   1.084       .  S
C118        C119   1.412       .  A
C119        C120   1.393       .  A
C119        N126   1.433       .  S
C120        C121   1.412       .  A
C120        H125   1.078       .  S
C121        C122   1.431       .  A
C122        N123   1.431       .  S
N123        O127   1.262       .  A
N123        O128   1.262       .  A
N126        O130   1.262       .  A
N126        O129   1.262       .  A
C131        C132   1.419       .  A
C131        C136   1.401       .  A
C131        H138   1.077       .  S
C132        C133   1.434       .  A
C133        C134   1.403       .  A
C133        N140   1.432       .  S
C134        C135   1.395       .  A
C134        H139   1.084       .  S
C135        C136   1.401       .  A
C136        N137   1.430       .  S
N137        O141   1.262   1_655  A
N137        O142   1.262       .  A
N140        O144   1.262       .  A
N140        O143   1.262       .  A
C145        C146   1.402       .  A
C145        C150   1.407       .  A
C145        H152   1.077       .  S
C146        C147   1.433       .  A
C147        C148   1.405       .  A
C147        N154   1.432       .  S
C148        C149   1.410       .  A
C148        H153   1.078       .  S
C149        C150   1.436       .  A
C150        N151   1.428       .  S
N151        O155   1.262       .  A
N151        O156   1.263       .  A
N154        O158   1.262       .  A
N154        O157   1.262       .  A
C159        C160   1.420       .  A
C159        C164   1.412       .  A
C159        H166   1.078       .  S
C160        C414   1.590       .  S
C160        C161   1.426       .  A
C161        C162   1.407       .  A
C161        N564   1.433       .  S
C162        C163   1.418       .  A
C162        H167   1.077       .  S
C163        C164   1.429       .  A
C164        N165   1.432       .  S
N165        O169   1.262       .  A
N165        O170   1.262       .  A
N168        C557   1.433   1_554  S
N168        O172   1.262       .  A
N168        O171   1.262   1_554  A
C173        C174   1.421       .  A
C173        C178   1.399       .  A
C173        H576   1.084       .  S
C174        C175   1.444       .  A
C175        C176   1.404       .  A
C175        N182   1.435       .  S
C176        C177   1.392       .  A
C176        H181   1.085       .  S
C177        C178   1.400       .  A
C178        N575   1.430       .  S
N179        C574   1.430       .  S
N179        O183   1.262       .  A
N179        O184   1.262       .  A
H180        C569   1.084       .  S
N182        O186   1.263   1_554  A
N182        O185   1.260       .  A
C187        C188   1.389       .  A
C187        C192   1.388       .  A
C187        H194   1.085       .  S
C188        C189   1.405       .  A
C189        C190   1.412       .  A
C189        N196   1.428       .  S
C190        C191   1.429       .  A
C190        H195   1.084       .  S
C191        C192   1.427       .  A
C192        N193   1.420       .  S
N193        O197   1.260       .  A
N193        O198   1.262       .  A
N196        O200   1.262       .  A
N196        O199   1.262       .  A
C201        C202   1.424       .  A
C201        C206   1.399       .  A
C201        H208   1.079       .  S
C202        C203   1.432       .  A
C203        C204   1.402       .  A
C203        N210   1.421       .  S
C204        C205   1.388       .  A
C204        H209   1.082       .  S
C205        C206   1.397       .  A
C206        N207   1.425       .  S
N207        O211   1.262       .  A
N207        O212   1.262       .  A
N210        O214   1.255       .  A
N210        O213   1.261       .  A
C215        C216   1.419       .  A
C215        C220   1.399       .  A
C215        H222   1.077       .  S
C216        C217   1.431   1_554  A
C217        C218   1.396       .  A
C217        N620   1.433       .  S
C218        C219   1.401   1_556  A
C218        H619   1.084       .  S
C219        C220   1.404       .  A
C220        N221   1.429       .  S
N221        O225   1.262       .  A
N221        O226   1.262       .  A
H223        C614   1.084       .  S
N224        C613   1.432       .  S
N224        O228   1.261       .  A
N224        O227   1.262       .  A
C229        C230   1.410       .  A
C229        C234   1.424       .  A
C229        H236   1.082       .  S
C230        C231   1.437       .  A
C231        C232   1.418       .  A
C231        N238   1.424       .  S
C232        C233   1.410       .  A
C232        H633   1.080   1_554  S
C233        C399   1.615   1_554  S
C233        C234   1.448       .  A
C234        N235   1.434       .  S
N235        O239   1.263       .  A
N235        O240   1.263       .  A
H237        C628   1.081       .  S
N238        O242   1.262       .  A
N238        O241   1.263       .  A
C243        C244   1.408       .  A
C243        C248   1.423       .  A
C243        H250   1.084       .  S
C244        C245   1.442       .  A
C245        C246   1.407       .  A
C245        N252   1.433       .  S
C246        C247   1.405       .  A
C246        H251   1.084       .  S
C247        C248   1.451       .  A
C248        N249   1.429       .  S
N249        O253   1.261       .  A
N249        O254   1.262       .  A
N252        O256   1.263       .  A
N252        O255   1.261       .  A
C257        C258   1.425       .  A
C257        C262   1.405       .  A
C257        H264   1.071       .  S
C258        C259   1.446       .  A
C259        C260   1.403       .  A
C259        N266   1.438       .  S
C260        C261   1.396       .  A
C260        H265   1.084       .  S
C261        C262   1.403       .  A
C262        N263   1.430       .  S
N263        O267   1.262       .  A
N263        O664   1.262       .  A
N266        O270   1.260       .  A
N266        O269   1.263       .  A
O268        N659   1.262       .  A
C271        C272   1.410       .  A
C271        C276   1.418       .  A
C271        H278   1.083       .  S
C272        C273   1.405       .  A
C273        C274   1.384       .  A
C273        N280   1.431       .  S
C274        C275   1.419       .  A
C274        H279   1.084       .  S
C275        C276   1.428       .  A
C276        N673   1.430       .  S
N277        C672   1.431   1_554  S
N277        O281   1.262       .  A
N277        O678   1.261       .  A
N280        O284   1.262       .  A
N280        O283   1.262       .  A
O282        N673   1.261       .  A
C285        C286   1.414       .  A
C285        C290   1.412   1_554  A
C285        H292   1.083       .  S
C286        C287   1.433       .  A
C287        C288   1.411       .  A
C287        N294   1.435       .  S
C288        C289   1.413   1_554  A
C288        H293   1.083       .  S
C289        C398   1.584       .  S
C289        C290   1.436       .  A
C290        N687   1.439       .  S
N291        C686   1.437       .  S
N291        O295   1.263       .  A
N291        O296   1.261       .  A
N294        O298   1.263       .  A
N294        O297   1.260       .  A
C299        C300   1.410       .  A
C299        C304   1.401       .  A
C299        H306   1.074       .  S
C300        C301   1.428       .  A
C301        C302   1.402       .  A
C301        N308   1.431       .  S
C302        C303   1.406       .  A
C302        H307   1.076       .  S
C303        C304   1.427       .  A
C304        N305   1.430       .  S
N305        O309   1.262       .  A
N305        O310   1.262       .  A
N308        O312   1.262       .  A
N308        O311   1.262       .  A
C313        C314   1.428       .  A
C313        C318   1.399       .  A
C313        H320   1.078       .  S
C314        C315   1.439       .  A
C315        C316   1.408       .  A
C315        N322   1.427       .  S
C316        C317   1.391       .  A
C316        H321   1.085       .  S
C317        C318   1.398       .  A
C318        N715   1.430       .  S
N319        C714   1.430       .  S
N319        O323   1.262       .  A
N319        O720   1.262       .  A
N322        O326   1.261       .  A
N322        O325   1.256       .  A
O324        N715   1.262       .  A
C327        C328   1.422       .  A
C327        C332   1.401       .  A
C327        H334   1.084       .  S
C328        C329   1.432       .  A
C329        C330   1.397       .  A
C329        N336   1.421       .  S
C330        C331   1.390       .  A
C330        H335   1.085       .  S
C331        C332   1.406       .  A
C332        N333   1.429       .  S
N333        O337   1.262       .  A
N333        O338   1.262       .  A
N336        O340   1.262       .  A
N336        O339   1.260       .  A
C341        C342   1.420       .  A
C341        C346   1.426       .  A
C341        H348   1.083       .  S
C342        C343   1.422       .  A
C343        C344   1.403       .  A
C343        N350   1.424       .  S
C344        C345   1.407       .  A
C344        H349   1.061       .  S
C345        C346   1.435       .  A
C346        N347   1.429       .  S
N347        O351   1.262       .  A
N347        O352   1.260       .  A
N350        O354   1.261       .  A
N350        O353   1.261       .  A
C355        C356   1.420       .  A
C355        C360   1.423       .  A
C355        H758   1.086       .  S
C356        C397   1.601       .  S
C356        C357   1.442       .  A
C357        C358   1.396       .  A
C357        N364   1.437       .  S
C358        C359   1.397       .  A
C358        H363   1.091       .  S
C359        C360   1.440       .  A
C360        N361   1.435       .  S
N361        O365   1.262       .  A
N361        O366   1.261       .  A
H362        C751   1.085       .  S
N364        O368   1.260       .  A
N364        O367   1.263       .  A
C369        C370   1.419       .  A
C369        C374   1.409       .  A
C369        H376   1.081       .  S
C370        C371   1.438       .  A
C371        C372   1.392       .  A
C371        N378   1.433       .  S
C372        C373   1.393       .  A
C372        H377   1.085       .  S
C373        C374   1.407       .  A
C374        N375   1.428       .  S
N375        O775   1.262       .  A
N375        O380   1.262       .  A
N378        O382   1.262       .  A
N378        O381   1.258   1_554  A
O379        N771   1.261       .  A
C383        C384   1.428       .  A
C383        C388   1.409       .  A
C383        H390   1.073       .  S
C384        C385   1.454       .  A
C385        C386   1.398       .  A
C385        N392   1.443       .  S
C386        C387   1.393       .  A
C386        H391   1.085       .  S
C387        C388   1.403       .  A
C388        N389   1.429   1_554  S
N389        O393   1.262   1_556  A
N389        O394   1.262       .  A
N392        O396   1.261       .  A
N392        O395   1.263       .  A
C397        C741   1.612       .  S
C397        C766   1.562       .  S
C397        C780   1.598       .  S
C398        C699   1.568       .  S
C398        C710   1.600       .  S
C398        C724   1.579       .  S
C399        C640   1.616       .  S
C399        C654   1.590       .  S
C399        C671   1.566       .  S
O400        C403   1.276       .  A
C401        O406   1.276       .  A
C401        C713   1.474       .  S
O402        C408   1.278       .  A
O402       Cd405   2.476       .  S
C403        C657   1.482       .  S
C404        O409   1.276       .  A
C404        C769   1.483       .  S
Cd405       O411   2.418       .  S
Cd405       O410   2.412       .  S
Cd405       O409   2.515       .  S
C408        C615   1.482       .  S
C413        C587   1.579       .  S
C413        C598   1.590       .  S
C413        C682   1.582       .  S
C413        C696   1.572       .  S
C414        C545   1.591       .  S
C414        C570   1.573       .  S
C414        C612   1.562       .  S
C415        C517   1.572       .  S
C415        C528   1.569       .  S
C415        C542   1.579       .  S
C415        C559   1.587       .  S
O416        C419   1.276       .  A
O416       Cd421   2.466       .  S
C417        O426   1.270       .  A
C417        O422   1.277       .  A
C417        C500   1.485       .  S
O418        C424   1.278       .  A
O418       Cd421   2.489   1_455  S
C419        O427   1.270       .  A
C419        C601   1.471       .  S
C420        O425   1.279       .  A
C420        O423   1.266       .  A
C420        C514   1.487       .  S
Cd421       O428   2.425   1_655  S
Cd421       O427   2.407       .  S
Cd421       O426   2.407   1_645  S
Cd421       O422   2.487   1_645  S
Cd421       O425   2.513   1_545  S
Cd421       O423   2.382   1_545  S
C424        O428   1.270       .  A
C424        C486   1.479       .  S
C429        C472   1.567       .  S
C429        C503   1.580       .  S
C429        C626   1.614       .  S
C429        C643   1.605       .  S
O430        C433   1.276       .  A
O430       Cd435   2.463       .  S
C431        O440   1.270       .  A
C431        O436   1.277       .  A
C431        C584   1.482       .  S
O432        C438   1.275       .  A
O432       Cd435   2.465       .  S
C433        O441   1.266       .  A
C433        C475   1.464       .  S
C434        O439   1.276       .  A
C434        O437   1.268       .  A
C434        C783   1.485       .  S
Cd435       O442   2.415       .  S
Cd435       O441   2.387       .  S
Cd435       O440   2.326   1_565  S
Cd435       O436   2.525   1_565  S
Cd435       O439   2.523   1_565  S
Cd435       O437   2.393   1_565  S
C438        O442   1.269       .  A
C438        C573   1.470       .  S
C443        C458   1.595       .  S
C443        C489   1.580       .  S
C443        C738   1.590       .  S
C443        C755   1.589       .  S
O444        C447   1.279       .  A
O444       Cd449   2.414       .  S
C445        O454   1.270       .  A
C445        O450   1.277       .  A
C445        C668   1.487       .  S
O446        C452   1.278       .  A
O446       Cd449   2.490   1_455  S
C447        O455   1.271       .  A
C447        C727   1.478       .  S
C448        O453   1.279       .  A
C448        O451   1.269       .  A
C448        C531   1.467       .  S
Cd449       O456   2.440   1_655  S
Cd449       O455   2.430       .  S
Cd449       O454   2.363   1_655  S
Cd449       O450   2.518   1_655  S
Cd449       O453   2.469       .  S
Cd449       O451   2.374       .  S
C452        O456   1.271       .  A
C452        C461   1.492       .  S
C457        C458   1.416       .  A
C457        C462   1.400       .  A
C457        H464   1.070       .  S
C458        C459   1.442       .  A
C459        C460   1.412       .  A
C459        N466   1.433       .  S
C460        C461   1.398       .  A
C460        H465   1.084       .  S
C461        C462   1.406       .  A
C462        N463   1.431       .  S
N463        O467   1.262       .  A
N463        O468   1.262       .  A
N466        O470   1.261       .  A
N466        O469   1.260       .  A
C471        C472   1.421       .  A
C471        C476   1.397       .  A
C471        H478   1.079       .  S
C472        C473   1.444       .  A
C473        C474   1.404       .  A
C473        N480   1.439       .  S
C474        C475   1.392       .  A
C474        H479   1.085       .  S
C475        C476   1.396       .  A
C476        N477   1.430       .  S
N477        O481   1.262       .  A
N477        O482   1.262       .  A
N480        O484   1.259       .  A
N480        O483   1.263       .  A
C485        C486   1.394       .  A
C485        C490   1.406       .  A
C485        H492   1.085       .  S
C486        C487   1.402       .  A
C487        C488   1.404       .  A
C487        N494   1.428       .  S
C488        C489   1.421       .  A
C488        H493   1.079       .  S
C489        C490   1.435       .  A
C490        N491   1.428       .  S
N491        O495   1.262       .  A
N491        O496   1.262       .  A
N494        O498   1.261       .  A
N494        O497   1.262   1_455  A
C499        C500   1.397       .  A
C499        C504   1.401       .  A
C499        H506   1.084       .  S
C500        C501   1.404       .  A
C501        C502   1.405       .  A
C501        N508   1.429       .  S
C502        C503   1.419       .  A
C502        H507   1.077       .  S
C503        C504   1.436       .  A
C504        N505   1.430       .  S
N505        O509   1.262       .  A
N505        O510   1.261       .  A
N508        O512   1.262       .  A
N508        O511   1.262       .  A
C513        C514   1.404       .  A
C513        C518   1.412       .  A
C513        H520   1.084       .  S
C514        C515   1.411       .  A
C515        C516   1.389       .  A
C515        N522   1.431       .  S
C516        C517   1.409       .  A
C516        H521   1.078       .  S
C517        C518   1.432       .  A
C518        N519   1.432       .  S
N519        O523   1.262       .  A
N519        O524   1.262       .  A
N522        O526   1.262       .  A
N522        O525   1.262       .  A
C527        C528   1.419       .  A
C527        C532   1.401       .  A
C527        H534   1.078       .  S
C528        C529   1.434       .  A
C529        C530   1.401       .  A
C529        N536   1.432       .  S
C530        C531   1.394       .  A
C530        H535   1.084       .  S
C531        C532   1.400       .  A
C532        N533   1.430       .  S
N533        O537   1.262   1_655  A
N533        O538   1.262   1_655  A
N536        O540   1.262       .  A
N536        O539   1.262       .  A
C541        C542   1.402       .  A
C541        C546   1.404       .  A
C541        H548   1.077       .  S
C542        C543   1.432       .  A
C543        C544   1.406       .  A
C543        N550   1.432       .  S
C544        C545   1.410       .  A
C544        H549   1.078       .  S
C545        C546   1.435       .  A
C546        N547   1.428       .  S
N547        O551   1.262       .  A
N547        O552   1.263       .  A
N550        O554   1.262       .  A
N550        O553   1.262       .  A
C555        C556   1.418       .  A
C555        C560   1.407       .  A
C555        H562   1.077       .  S
C556        C557   1.428       .  A
C557        C558   1.410       .  A
C558        C559   1.418       .  A
C558        H563   1.077       .  S
C559        C560   1.429       .  A
C560        N561   1.432       .  S
N561        O565   1.262       .  A
N561        O566   1.262       .  A
N564        O568   1.262       .  A
N564        O567   1.262       .  A
C569        C570   1.422       .  A
C569        C574   1.400       .  A
C570        C571   1.444       .  A
C571        C572   1.403       .  A
C571        N578   1.435       .  S
C572        C573   1.392       .  A
C572        H577   1.085       .  S
C573        C574   1.400       .  A
N575        O579   1.262       .  A
N575        O580   1.262       .  A
N578        O582   1.263       .  A
N578        O581   1.260       .  A
C583        C584   1.390       .  A
C583        C588   1.389       .  A
C583        H590   1.085       .  S
C584        C585   1.405       .  A
C585        C586   1.412       .  A
C585        N592   1.428       .  S
C586        C587   1.429       .  A
C586        H591   1.083       .  S
C587        C588   1.426       .  A
C588        N589   1.420       .  S
N589        O593   1.260       .  A
N589        O594   1.262       .  A
N592        O596   1.262       .  A
N592        O595   1.262       .  A
C597        C598   1.421       .  A
C597        C602   1.396       .  A
C597        H604   1.079       .  S
C598        C599   1.436       .  A
C599        C600   1.404       .  A
C599        N606   1.424       .  S
C600        C601   1.389       .  A
C600        H605   1.082       .  S
C601        C602   1.395       .  A
C602        N603   1.422       .  S
N603        O607   1.262       .  A
N603        O608   1.262       .  A
N606        O610   1.257       .  A
N606        O609   1.261       .  A
C611        C612   1.419       .  A
C611        C616   1.400       .  A
C611        H618   1.077       .  S
C612        C613   1.431       .  A
C613        C614   1.396       .  A
C614        C615   1.401       .  A
C615        C616   1.404       .  A
C616        N617   1.429       .  S
N617        O621   1.262       .  A
N617        O622   1.262       .  A
N620        O624   1.261       .  A
N620        O623   1.262       .  A
C625        C626   1.411       .  A
C625        C630   1.422       .  A
C625        H632   1.081       .  S
C626        C627   1.439       .  A
C627        C628   1.420       .  A
C627        N634   1.425       .  S
C628        C629   1.411       .  A
C629        C630   1.445       .  A
C630        N631   1.434       .  S
N631        O635   1.263       .  A
N631        O636   1.263       .  A
N634        O638   1.262       .  A
N634        O637   1.262       .  A
C639        C640   1.409       .  A
C639        C644   1.423       .  A
C639        H646   1.084       .  S
C640        C641   1.441       .  A
C641        C642   1.408       .  A
C641        N648   1.432       .  S
C642        C643   1.407       .  A
C642        H647   1.084       .  S
C643        C644   1.448       .  A
C644        N645   1.428       .  S
N645        O649   1.261       .  A
N645        O650   1.262       .  A
N648        O652   1.263       .  A
N648        O651   1.261       .  A
C653        C654   1.424       .  A
C653        C658   1.401       .  A
C653        H660   1.070       .  S
C654        C655   1.447   1_556  A
C655        C656   1.403       .  A
C655        N662   1.439       .  S
C656        C657   1.396   1_554  A
C656        H661   1.084       .  S
C657        C658   1.400       .  A
C658        N659   1.429       .  S
N659        O663   1.262       .  A
N662        O666   1.260       .  A
N662        O665   1.263       .  A
C667        C668   1.411       .  A
C667        C672   1.421       .  A
C667        H674   1.083   1_556  S
C668        C669   1.403       .  A
C669        C670   1.382       .  A
C669        N676   1.431       .  S
C670        C671   1.419       .  A
C670        H675   1.084       .  S
C671        C672   1.429       .  A
N673        O677   1.262       .  A
N676        O680   1.262       .  A
N676        O679   1.262       .  A
C681        C682   1.416       .  A
C681        C686   1.412       .  A
C681        H688   1.083       .  S
C682        C683   1.432       .  A
C683        C684   1.409       .  A
C683        N690   1.435       .  S
C684        C685   1.414       .  A
C684        H689   1.082       .  S
C685        C686   1.433       .  A
N687        O691   1.263       .  A
N687        O692   1.260       .  A
N690        O694   1.263       .  A
N690        O693   1.260       .  A
C695        C696   1.408       .  A
C695        C700   1.397       .  A
C695        H702   1.075       .  S
C696        C697   1.428       .  A
C697        C698   1.402       .  A
C697        N704   1.431       .  S
C698        C699   1.406       .  A
C698        H703   1.076       .  S
C699        C700   1.425       .  A
C700        N701   1.429       .  S
N701        O705   1.262       .  A
N701        O706   1.262       .  A
N704        O708   1.262       .  A
N704        O707   1.262       .  A
C709        C710   1.429       .  A
C709        C714   1.400       .  A
C709        H716   1.078       .  S
C710        C711   1.440       .  A
C711        C712   1.406       .  A
C711        N718   1.425       .  S
C712        C713   1.389       .  A
C712        H717   1.085       .  S
C713        C714   1.398       .  A
N715        O719   1.262       .  A
N718        O722   1.261       .  A
N718        O721   1.257       .  A
C723        C724   1.424       .  A
C723        C728   1.403       .  A
C723        H730   1.083       .  S
C724        C725   1.431       .  A
C725        C726   1.396       .  A
C725        N732   1.419   1_556  S
C726        C727   1.388       .  A
C726        H731   1.085       .  S
C727        C728   1.407       .  A
C728        N729   1.429       .  S
N729        O733   1.262       .  A
N729        O734   1.262       .  A
N732        O736   1.262       .  A
N732        O735   1.260   1_554  A
C737        C738   1.421       .  A
C737        C742   1.426       .  A
C737        H744   1.084       .  S
C738        C739   1.422       .  A
C739        C740   1.403       .  A
C739        N746   1.426       .  S
C740        C741   1.410       .  A
C740        H745   1.065       .  S
C741        C742   1.434       .  A
C742        N743   1.428       .  S
N743        O747   1.262       .  A
N743        O748   1.259       .  A
N746        O750   1.261       .  A
N746        O749   1.260       .  A
C751        C752   1.418       .  A
C751        C756   1.421   1_554  A
C752        C753   1.442   1_554  A
C753        C754   1.397       .  A
C753        N760   1.437       .  S
C754        C755   1.398       .  A
C754        H759   1.083       .  S
C755        C756   1.441       .  A
C756        N757   1.435       .  S
N757        O761   1.262       .  A
N757        O762   1.261       .  A
N760        O764   1.260   1_556  A
N760        O763   1.263       .  A
C765        C766   1.419       .  A
C765        C770   1.411       .  A
C765        H772   1.081       .  S
C766        C767   1.438       .  A
C767        C768   1.394       .  A
C767        N774   1.432       .  S
C768        C769   1.394       .  A
C768        H773   1.085       .  S
C769        C770   1.408       .  A
C770        N771   1.427       .  S
N771        O776   1.262       .  A
N774        O778   1.262       .  A
N774        O777   1.257       .  A
C779        C780   1.428       .  A
C779        C784   1.409       .  A
C779        H786   1.073       .  S
C780        C781   1.452       .  A
C781        C782   1.397       .  A
C781        N788   1.442       .  S
C782        C783   1.393       .  A
C782        H787   1.085       .  S
C783        C784   1.403       .  A
C784        N785   1.429       .  S
N785        O789   1.262       .  A
N785        O790   1.262       .  A
N788        O792   1.261       .  A
N788        O791   1.263       .  A
