geometry optimzed in LAMMPS
_audit_creation_date              2020-11-30 
_audit_creation_method            'lammps2cif' 
_symmetry_space_group_name_H-M    'P1' 
_symmetry_Int_Tables_number       1 
_symmetry_cell_setting            triclinic 
loop_ 
_symmetry_equiv_pos_as_xyz 
  x,y,z 
_cell_length_a                    19.34068975 
_cell_length_b                    25.902988290103195 
_cell_length_c                    29.997402510713563 
_cell_angle_alpha                 91.32535164053962 
_cell_angle_beta                  90.16554478268318 
_cell_angle_gamma                 89.90426349326191 
loop_ 
_atom_site_label 
_atom_site_type_symbol 
_atom_site_fract_x 
_atom_site_fract_y 
_atom_site_fract_z 
_atom_site_charge 
C1          C  0.14409003  0.25917662  0.16149520    -0.02800
C2          C  0.33608942  0.25302446  0.32007178    -0.02800
C3          C  0.16381464  0.75094900  0.31934860    -0.02800
C4          C  0.34972267  0.75527660  0.15716594    -0.02800
In5        In  0.26450577  0.00448269  0.49100706     1.36900
C6          C  0.30219150  0.07364404  0.43327107     0.77300
O7          O  0.29876962  0.94337716  0.44302693    -0.61100
O8          O  0.18974694  0.95448747  0.45230921    -0.52000
C9          C  0.30605934  0.94214828  0.05314984     0.70000
O10         O  0.34849541  0.96533093  0.02831758    -0.46900
C11         C  0.21064753  0.07734093  0.04800014     0.74700
O12         O  0.34431277  0.05593791  0.46165696    -0.58800
O13         O  0.17229003  0.05020419  0.02222404    -0.48800
O14         O  0.24234036  0.05427384  0.43367008    -0.55200
C15         C  0.23806824  0.92953823  0.43284160     0.84900
O16         O  0.24327564  0.95382384  0.04717296    -0.57100
O17         O  0.27461402  0.06839941  0.04435335    -0.60400
In18       In  0.23010031  0.50340557  0.48949961     1.36900
C19         C  0.21192999  0.43726092  0.05095082     0.77300
O20         O  0.19212883  0.44395476  0.44145737    -0.61100
O21         O  0.30107139  0.46110877  0.44283456    -0.52000
C22         C  0.18762729  0.57142492  0.43235324     0.70000
O23         O  0.14498609  0.54937546  0.45806118    -0.46900
C24         C  0.26768767  0.58095975  0.04071305     0.74700
O25         O  0.16177956  0.45896201  0.03114260    -0.58800
O26         O  0.31299858  0.55356393  0.02048129    -0.48800
O27         O  0.27163241  0.45157166  0.03919143    -0.55200
C28         C  0.25187141  0.43456989  0.42582230     0.84900
O29         O  0.25020954  0.55781810  0.43619503    -0.57100
O30         O  0.20527416  0.56828073  0.03418455    -0.60400
C31         C  0.83371823  0.24937796  0.15189271    -0.02800
C32         C  0.64892703  0.23939417  0.31554196    -0.02800
C33         C  0.85323785  0.74036637  0.30884881    -0.02800
C34         C  0.66070005  0.74279222  0.15040223    -0.02800
In35       In  0.72445486  0.98771625  0.48062198     1.36900
C36         C  0.76062914  0.91258579  0.42480244     0.77300
O37         O  0.75326000  0.93945166  0.03772656    -0.61100
O38         O  0.64819198  0.94657468  0.01538088    -0.52000
C39         C  0.77436910  0.06489634  0.03620645     0.70000
O40         O  0.81712864  0.03461518  0.01675636    -0.46900
C41         C  0.68184810  0.05336322  0.42120985     0.74700
O42         O  0.80471494  0.94402990  0.44121731    -0.58800
O43         O  0.64011086  0.03302969  0.44827013    -0.48800
O44         O  0.69890083  0.91994458  0.43703115    -0.55200
C45         C  0.69090520  0.92565166  0.04164813     0.84900
O46         O  0.71136641  0.05490037  0.02878389    -0.57100
O47         O  0.74344189  0.03720744  0.42314938    -0.60400
In48       In  0.78783800  0.49324818  0.47873020     1.36900
C49         C  0.81303648  0.43105497  0.03980890     0.77300
O50         O  0.81711315  0.56055491  0.02575753    -0.61100
O51         O  0.70862818  0.54549763  0.01595033    -0.52000
C52         C  0.82772963  0.55718938  0.41764898     0.70000
O53         O  0.87126428  0.53467543  0.44244238    -0.46900
C54         C  0.74443626  0.41713420  0.42599901     0.74700
O55         O  0.86081860  0.44898296  0.01550422    -0.58800
O56         O  0.70277875  0.45013898  0.44293055    -0.48800
O57         O  0.75354706  0.45030687  0.03443804    -0.55200
C58         C  0.75533030  0.57218289  0.03546825     0.84900
O59         O  0.76517229  0.54450855  0.42296440    -0.57100
O60         O  0.80771876  0.42457671  0.43473455    -0.60400
C61         C  0.73578716  0.70611974  0.08513998    -0.26600
C62         C  0.69522794  0.69710533  0.12346502    -0.14700
C63         C  0.69302808  0.64523894  0.13796449     0.36000
C64         C  0.71288793  0.60463033  0.10881265    -0.26000
C65         C  0.73940408  0.61487928  0.06666082    -0.15300
C66         C  0.75381195  0.66593759  0.05536377     0.37100
N67         N  0.78469915  0.67694297  0.01310940    -0.89500
H68         H  0.75065534  0.74481355  0.07658421     0.18200
H69         H  0.70668349  0.56501021  0.11893620     0.18200
N70         N  0.66774924  0.63331440  0.18125617    -0.88500
H71         H  0.79152157  0.71669405  0.00971034     0.35500
H72         H  0.76514334  0.66079989  0.49027127     0.40600
H73         H  0.62603698  0.60797277  0.17769024     0.40300
H74         H  0.70701495  0.61368163  0.19782728     0.35100
C75         C  0.68663618  0.84067278  0.14232390    -0.26600
C76         C  0.66250539  0.79366649  0.12304099    -0.14700
C77         C  0.63531262  0.79542262  0.07864276     0.36000
C78         C  0.64016613  0.84071650  0.05429764    -0.26000
C79         C  0.67132869  0.88493470  0.07246850    -0.15300
C80         C  0.69223300  0.88574910  0.11759404     0.35900
N81         N  0.71922298  0.93147856  0.13949066    -0.89500
H82         H  0.70154472  0.84312449  0.17706001     0.18200
H83         H  0.62380156  0.84004880  0.01967183     0.18200
N84         N  0.60895674  0.74999153  0.05624527    -0.88500
H85         H  0.68631068  0.94081897  0.16608297     0.35500
H86         H  0.71773511  0.96317064  0.11865015     0.40600
H87         H  0.55990710  0.75758173  0.04362927     0.40300
H88         H  0.64000444  0.74218250  0.02840130     0.35100
C89         C  0.73469192  0.73239921  0.27201712    -0.26600
C90         C  0.80607761  0.74228523  0.26623487    -0.14700
C91         C  0.82603780  0.75973487  0.22371926     0.36000
C92         C  0.77785557  0.75975025  0.18827446    -0.26000
C93         C  0.70712190  0.74661063  0.19352565    -0.15300
C94         C  0.68640861  0.73254492  0.23697922     0.37100
N95         N  0.61783773  0.71513724  0.24623313    -0.89500
H96         H  0.71622890  0.72128375  0.30438843     0.18200
H97         H  0.79614052  0.77101095  0.15582854     0.18200
N98         N  0.89376930  0.77984826  0.21614755    -0.88500
H99         H  0.59697193  0.73927878  0.27119004     0.35500
H100        H  0.62080462  0.67785425  0.25874769     0.40600
H101        H  0.88864565  0.81819090  0.20648652     0.40300
H102        H  0.91600780  0.75898641  0.18957963     0.35100
C103        C  0.88934791  0.68394079  0.37342558    -0.26600
C104        C  0.85190912  0.68723637  0.33278172    -0.14700
C105        C  0.81882870  0.64101248  0.31688789     0.36000
C106        C  0.81346053  0.59843408  0.34477916    -0.26000
C107        C  0.84617746  0.59788281  0.38632417    -0.15300
C108        C  0.88804883  0.63988660  0.39942286     0.37100
N109        N  0.92755644  0.63983461  0.43985566    -0.89500
H110        H  0.91808740  0.71692559  0.38620142     0.18200
H111        H  0.78377849  0.56508413  0.33357514     0.18200
N112        N  0.79354648  0.63508217  0.27221402    -0.88500
H113        H  0.96236103  0.60895993  0.43792648     0.35500
H114        H  0.89426529  0.63388746  0.46654685     0.40600
H115        H  0.74133972  0.62488048  0.27385810     0.40300
H116        H  0.81996160  0.60436391  0.25671438     0.35100
C117        C  0.82696140  0.83593654  0.32472414    -0.26600
C118        C  0.81994021  0.78432019  0.33891005    -0.14700
C119        C  0.77946690  0.77679949  0.37800488     0.36000
C120        C  0.76069473  0.81939396  0.40516361    -0.26000
C121        C  0.77913684  0.86963307  0.39410480    -0.15300
C122        C  0.81042311  0.87834201  0.35280224     0.37100
N123        N  0.82430286  0.93015517  0.33920856    -0.89500
H124        H  0.85169583  0.84304293  0.29311506     0.18200
H125        H  0.73170154  0.81303467  0.43543731     0.18200
N126        N  0.75308232  0.72715739  0.38929003    -0.88500
H127        H  0.84553680  0.92995550  0.30719012     0.35500
H128        H  0.86213415  0.94554153  0.36060356     0.40600
H129        H  0.69907812  0.72918855  0.38948857     0.40300
H130        H  0.76945541  0.71900293  0.42162103     0.35100
C131        C  0.70504229  0.27960134  0.38844409    -0.26600
C132        C  0.67820025  0.28580940  0.34487043    -0.14700
C133        C  0.67764433  0.33708639  0.32814158     0.36000
C134        C  0.69895580  0.37923395  0.35507933    -0.26000
C135        C  0.72155955  0.37225283  0.39868719    -0.15300
C136        C  0.72492142  0.32215486  0.41536673     0.37100
N137        N  0.74672478  0.31439848  0.46035212    -0.89500
H138        H  0.71157491  0.24196628  0.40246941     0.18200
H139        H  0.69740946  0.41778990  0.34180986     0.18200
N140        N  0.65260353  0.34686227  0.28415469    -0.88500
H141        H  0.78814315  0.28840920  0.45974302     0.35500
H142        H  0.70576385  0.29719877  0.47710696     0.40600
H143        H  0.69206859  0.36485552  0.26658858     0.40300
H144        H  0.61100332  0.37257070  0.28674552     0.35100
C145        C  0.69674461  0.09810173  0.35015701    -0.26600
C146        C  0.66312403  0.09547072  0.39120521    -0.14700
C147        C  0.62003097  0.13658006  0.40504198     0.36000
C148        C  0.61651220  0.18100957  0.37960368    -0.26000
C149        C  0.65498763  0.18658701  0.33979014    -0.15300
C150        C  0.69109342  0.14169268  0.32348965     0.37100
N151        N  0.71865232  0.13781535  0.27927915    -0.89500
H152        H  0.72766414  0.06561387  0.33838322     0.18200
H153        H  0.58504559  0.21269495  0.39221534     0.18200
N154        N  0.58189692  0.13559630  0.44588023    -0.88500
H155        H  0.69400135  0.10725314  0.26234432     0.35500
H156        H  0.77124733  0.12875803  0.28147978     0.40600
H157        H  0.61651333  0.13056982  0.47225768     0.40300
H158        H  0.54784334  0.10430841  0.44431708     0.35100
C159        C  0.81012661  0.24637056  0.23776406    -0.26600
C160        C  0.78303645  0.24635175  0.19380201    -0.14700
C161        C  0.70886716  0.24659428  0.19136583     0.36000
C162        C  0.66737585  0.24633217  0.22998256    -0.26000
C163        C  0.69515994  0.24071581  0.27267135    -0.15300
C164        C  0.76866579  0.24107459  0.27583910     0.37100
N165        N  0.80233545  0.23594208  0.31815742    -0.89500
H166        H  0.86473105  0.25000539  0.24408875     0.18200
H167        H  0.61230091  0.25141178  0.22580400     0.18200
N168        N  0.67324534  0.25111199  0.15023215    -0.88500
H169        H  0.83277254  0.26873325  0.32407672     0.35500
H170        H  0.83517596  0.20387176  0.31631007     0.40600
H171        H  0.64004929  0.21943135  0.14653499     0.40300
H172        H  0.64287074  0.28454461  0.15143876     0.35100
C173        C  0.85990568  0.30060859  0.08315181    -0.26600
C174        C  0.82151249  0.29848062  0.12346686    -0.14700
C175        C  0.78664787  0.34450247  0.13775336     0.36000
C176        C  0.78540172  0.38743449  0.10998722    -0.26000
C177        C  0.82299557  0.38798317  0.07015937    -0.15300
C178        C  0.86234875  0.34452699  0.05745767     0.37100
N179        N  0.90498711  0.34345662  0.01844631    -0.89500
H180        H  0.89142276  0.26800558  0.07247304     0.18200
H181        H  0.75634199  0.42143593  0.12039958     0.18200
N182        N  0.75721492  0.35022322  0.18127609    -0.88500
H183        H  0.94273987  0.37206468  0.02216875     0.35500
H184        H  0.87458514  0.35158225  0.99065293     0.40600
H185        H  0.70540102  0.36102803  0.17777926     0.40300
H186        H  0.78288698  0.38030734  0.19820061     0.35100
C187        C  0.74825936  0.15241492  0.06451229    -0.26600
C188        C  0.79398880  0.11080622  0.06375539    -0.14700
C189        C  0.85822718  0.11682105  0.08500640     0.36000
C190        C  0.87164370  0.16244818  0.11017671    -0.26000
C191        C  0.82096256  0.20154319  0.11807021    -0.15300
C192        C  0.76329613  0.19854435  0.08767671     0.37100
N193        N  0.72903217  0.24387097  0.07187616    -0.89500
H194        H  0.70270449  0.15103921  0.04334140     0.18200
H195        H  0.92399322  0.16748323  0.12055254     0.18200
N196        N  0.91020943  0.07732646  0.08040761    -0.88500
H197        H  0.67603070  0.23653518  0.06880216     0.35500
H198        H  0.74661752  0.25001128  0.03951470     0.40600
H199        H  0.89160273  0.04441210  0.09591108     0.40300
H200        H  0.95537942  0.08807957  0.09744540     0.35100
C201        C  0.46438571  0.70328316  0.14410225    -0.26600
C202        C  0.42991245  0.74504198  0.16639417    -0.14700
C203        C  0.47467547  0.78175224  0.18820002     0.36000
C204        C  0.54731441  0.77693387  0.18441220    -0.26000
C205        C  0.58068228  0.73696001  0.15943209    -0.15300
C206        C  0.53627044  0.69980101  0.13886287     0.37100
N207        N  0.56118604  0.66056358  0.10855926    -0.89500
H208        H  0.43687795  0.67456090  0.12483457     0.18200
H209        H  0.57882804  0.80665737  0.20027826     0.18200
N210        N  0.44971569  0.82616126  0.21290701    -0.88500
H211        H  0.54505121  0.62468943  0.11994728     0.35500
H212        H  0.53819091  0.66569192  0.07738243     0.40600
H213        H  0.39633576  0.82654819  0.21605150     0.40300
H214        H  0.46330382  0.85899585  0.19530488     0.35100
C215        C  0.29926368  0.71742494  0.08229785    -0.26600
C216        C  0.32064444  0.71016389  0.12688992    -0.14700
C217        C  0.31595243  0.65884296  0.14338168     0.36000
C218        C  0.29930971  0.61729944  0.11461560    -0.26000
C219        C  0.28541857  0.62518151  0.06976210    -0.15300
C220        C  0.28300345  0.67549970  0.05385660     0.37100
N221        N  0.26355643  0.68425290  0.00865031    -0.89500
H222        H  0.29407602  0.75534373  0.06866806     0.18200
H223        H  0.29808079  0.57849511  0.12738519     0.18200
N224        N  0.33225617  0.64812142  0.18882384    -0.88500
H225        H  0.30412510  0.70376550  0.99344671     0.35500
H226        H  0.22034506  0.70853618  0.00931332     0.40600
H227        H  0.37325322  0.62178065  0.18925559     0.40300
H228        H  0.28917360  0.63049253  0.20285547     0.35100
C229        C  0.30802576  0.85141029  0.15103988    -0.26600
C230        C  0.34667495  0.80907179  0.13344825    -0.14700
C231        C  0.38481455  0.81862570  0.09390335     0.36000
C232        C  0.37421751  0.86391722  0.06988892    -0.26000
C233        C  0.32683198  0.90129371  0.08431629    -0.15300
C234        C  0.29588030  0.89590076  0.12647300     0.37100
N235        N  0.25303119  0.93548275  0.14582371    -0.89500
H236        H  0.28417061  0.84999425  0.18347877     0.18200
H237        H  0.40079416  0.86845685  0.03844915     0.18200
N238        N  0.43424435  0.78218339  0.07732570    -0.88500
H239        H  0.20969175  0.94073367  0.12559100     0.35500
H240        H  0.28173339  0.96959257  0.14726100     0.40600
H241        H  0.48141701  0.80162748  0.07744334     0.40300
H242        H  0.42143793  0.77206921  0.04438025     0.35100
C243        C  0.96758323  0.78805563  0.32930635    -0.26600
C244        C  0.93364749  0.75036014  0.30219903    -0.14700
C245        C  0.97858287  0.71619250  0.27761104     0.36000
C246        C  0.05109442  0.72164590  0.28051954    -0.26000
C247        C  0.08426130  0.75886010  0.30859042    -0.15300
C248        C  0.03937205  0.79238855  0.33341388     0.37100
N249        N  0.06410179  0.82768513  0.36727796    -0.89500
H250        H  0.93978034  0.81158350  0.35318440     0.18200
H251        H  0.08255878  0.69294373  0.26323973     0.18200
N252        N  0.95399824  0.67166831  0.25318094    -0.88500
H253        H  0.04326488  0.81756581  0.39799888     0.35500
H254        H  0.04661402  0.86475591  0.35985969     0.40600
H255        H  0.91315200  0.68123966  0.23227366     0.40300
H256        H  0.93837969  0.64382989  0.27551998     0.35100
C257        C  0.32751297  0.74623824  0.24228952    -0.26600
C258        C  0.30092247  0.75509728  0.19931085    -0.14700
C259        C  0.22695874  0.76044787  0.19605422     0.36000
C260        C  0.18557388  0.76134207  0.23432549    -0.26000
C261        C  0.21170959  0.75058284  0.27693039    -0.15300
C262        C  0.28476937  0.74388886  0.28022482     0.37100
N263        N  0.31651054  0.73411846  0.32234430    -0.89500
H264        H  0.38218971  0.73958231  0.24696955     0.18200
H265        H  0.13156267  0.77000901  0.22949261     0.18200
N266        N  0.19006946  0.76272490  0.15451140    -0.88500
H267        H  0.34371358  0.69927793  0.31975596     0.35500
H268        H  0.35224419  0.76353399  0.32912101     0.40600
H269        H  0.20913813  0.79116814  0.13400841     0.40300
H270        H  0.19135861  0.72671531  0.13827747     0.35100
C271        C  0.12380401  0.69640193  0.38450579    -0.26600
C272        C  0.16304067  0.69865119  0.34455172    -0.14700
C273        C  0.19433496  0.65171367  0.32942127     0.36000
C274        C  0.19947544  0.60998150  0.35828098    -0.26000
C275        C  0.16841273  0.61140482  0.40036823    -0.15300
C276        C  0.12679649  0.65378058  0.41264701     0.37100
N277        N  0.09082654  0.65476895  0.45454350    -0.89500
H278        H  0.09496131  0.72993310  0.39579289     0.18200
H279        H  0.22816454  0.57590451  0.34760174     0.18200
N280        N  0.21800177  0.64446468  0.28457830    -0.88500
H281        H  0.06287718  0.68913125  0.45866297     0.35500
H282        H  0.12762041  0.65443248  0.48008185     0.40600
H283        H  0.18961376  0.61430595  0.26976603     0.40300
H284        H  0.26977524  0.63286923  0.28557876     0.35100
C285        C  0.19168689  0.84676101  0.33083916    -0.26600
C286        C  0.19400779  0.79650753  0.34864427    -0.14700
C287        C  0.22524377  0.79198002  0.39163614     0.36000
C288        C  0.23772896  0.83625937  0.41807703    -0.26000
C289        C  0.22555587  0.88552286  0.40208077    -0.15300
C290        C  0.20674973  0.89110968  0.35694600     0.37100
N291        N  0.20146886  0.94072231  0.33664636    -0.89500
H292        H  0.17334565  0.85181399  0.29705387     0.18200
H293        H  0.25812257  0.83200152  0.45152930     0.18200
N294        N  0.24829922  0.74360175  0.40835096    -0.88500
H295        H  0.23808433  0.94164903  0.31109234     0.35500
H296        H  0.21429612  0.97066097  0.35902916     0.40600
H297        H  0.22402076  0.73828466  0.43892681     0.40300
H298        H  0.30149414  0.74597923  0.41436722     0.35100
C299        C  0.45026924  0.21771270  0.28703303    -0.26600
C300        C  0.41691670  0.25665256  0.31308469    -0.14700
C301        C  0.46159764  0.28866179  0.33949351     0.36000
C302        C  0.53327284  0.28576889  0.33449125    -0.26000
C303        C  0.56779089  0.24721397  0.30855384    -0.15300
C304        C  0.52288173  0.21116011  0.28572202     0.37100
N305        N  0.54688500  0.16392530  0.26516148    -0.89500
H306        H  0.41870976  0.18916767  0.26966690     0.18200
H307        H  0.56080240  0.31137393  0.35695899     0.18200
N308        N  0.43690757  0.32058306  0.37579510    -0.88500
H309        H  0.56431803  0.13908012  0.28960274     0.35500
H310        H  0.58576711  0.17035725  0.24213203     0.40600
H311        H  0.45335496  0.35846614  0.37081955     0.40300
H312        H  0.45948400  0.30810941  0.40540480     0.35100
C313        C  0.23430452  0.34451336  0.40256362    -0.26600
C314        C  0.26354834  0.39209865  0.39309279    -0.14700
C315        C  0.30528828  0.39608045  0.35478230     0.36000
C316        C  0.32203072  0.35091670  0.33015563    -0.26000
C317        C  0.30575886  0.30116273  0.34588234    -0.15300
C318        C  0.25599182  0.29903221  0.38097066     0.37100
N319        N  0.22497209  0.25172675  0.39460384    -0.89500
H320        H  0.19560431  0.34204021  0.42826394     0.18200
H321        H  0.35391494  0.35435665  0.30073059     0.18200
N322        N  0.33139885  0.44465734  0.33985104    -0.88500
H323        H  0.23515792  0.24735363  0.42857570     0.35500
H324        H  0.17135327  0.25490518  0.39086502     0.40600
H325        H  0.31282826  0.47543166  0.35944849     0.40300
H326        H  0.31180368  0.45027486  0.30780118     0.35100
C327        C  0.35709391  0.20321716  0.39103284    -0.26600
C328        C  0.32964932  0.20258341  0.34719160    -0.14700
C329        C  0.30396096  0.15448546  0.33011884     0.36000
C330        C  0.29649714  0.11265462  0.35868979    -0.26000
C331        C  0.31929325  0.11565386  0.40299956    -0.15300
C332        C  0.35188903  0.16078595  0.41898317     0.37100
N333        N  0.37555248  0.16467870  0.46443084    -0.89500
H334        H  0.37963221  0.23824311  0.40458096     0.18200
H335        H  0.27349956  0.07713151  0.34589997     0.18200
N336        N  0.28843565  0.14640490  0.28377027    -0.88500
H337        H  0.39443202  0.20171987  0.47175660     0.35500
H338        H  0.41754713  0.13956753  0.46758457     0.40600
H339        H  0.23699419  0.13439631  0.28084824     0.40300
H340        H  0.31993462  0.11654176  0.27141378     0.35100
C341        C  0.02811643  0.21871084  0.18694827    -0.26600
C342        C  0.06322449  0.26256787  0.17028050    -0.14700
C343        C  0.01923337  0.30396125  0.15739775     0.36000
C344        C  0.94815209  0.30115343  0.16378097    -0.26000
C345        C  0.91305631  0.25372995  0.16811686    -0.15300
C346        C  0.95490873  0.21397435  0.18705624     0.37100
N347        N  0.92609722  0.16805640  0.20581524    -0.89500
H348        H  0.05835399  0.18626507  0.19826320     0.18200
H349        H  0.92049320  0.33680708  0.15894273     0.18200
N350        N  0.04279455  0.34768789  0.13357650    -0.88500
H351        H  0.94732664  0.13572874  0.18940864     0.35500
H352        H  0.87279368  0.16608892  0.20102124     0.40600
H353        H  0.02848413  0.38134709  0.15118613     0.40300
H354        H  0.01838312  0.34780780  0.10240654     0.35100
C355        C  0.26422955  0.26128071  0.19770366    -0.26600
C356        C  0.19150675  0.25738647  0.20413106    -0.14700
C357        C  0.16910783  0.25254334  0.24872883     0.36000
C358        C  0.21778368  0.24634697  0.28289753    -0.26000
C359        C  0.28999084  0.25207366  0.27695037    -0.15300
C360        C  0.31212519  0.26256630  0.23313294     0.37100
N361        N  0.38166362  0.27746617  0.22383726    -0.89500
H362        H  0.28441753  0.26577738  0.16438489     0.18200
H363        H  0.19768839  0.23856182  0.31537811     0.18200
N364        N  0.09785790  0.25557806  0.26099128    -0.88500
H365        H  0.38063223  0.31427876  0.21026351     0.35500
H366        H  0.40166916  0.25174594  0.19975814     0.40600
H367        H  0.09163161  0.28670414  0.28344889     0.40300
H368        H  0.08483111  0.22178938  0.27743980     0.35100
C369        C  0.18949936  0.40098993  0.12679483    -0.26600
C370        C  0.20232726  0.39351039  0.08122889    -0.14700
C371        C  0.20852495  0.34289660  0.06416189     0.36000
C372        C  0.19657328  0.30094735  0.09117357    -0.26000
C373        C  0.17197873  0.30711003  0.13528843    -0.15300
C374        C  0.17659286  0.35867343  0.15440196     0.37100
N375        N  0.16380689  0.37022247  0.20066843    -0.89500
H376        H  0.18843055  0.43985764  0.14093607     0.18200
H377        H  0.20552619  0.26354266  0.07592734     0.18200
N378        N  0.22291042  0.33293694  0.01817831    -0.88500
H379        H  0.20407115  0.35557659  0.21985232     0.35500
H380        H  0.11708569  0.35397249  0.21043445     0.40600
H381        H  0.29666522  0.34621945  0.51818897     0.40300
H382        H  0.21420844  0.34456748  0.49907696     0.35100
C383        C  0.19686963  0.16679875  0.14922116    -0.26600
C384        C  0.15384208  0.20703594  0.13374879    -0.14700
C385        C  0.11780153  0.19680710  0.09280196     0.36000
C386        C  0.13396286  0.15274488  0.06627759    -0.26000
C387        C  0.18457031  0.11758359  0.07969148    -0.15300
C388        C  0.21365318  0.12374947  0.12262262     0.37100
N389        N  0.25916559  0.08600834  0.14093441    -0.89500
H390        H  0.21950259  0.16793596  0.18214955     0.18200
H391        H  0.10927838  0.14752229  0.03401382     0.18200
N392        N  0.06710910  0.23237181  0.07685402    -0.88500
H393        H  0.30453292  0.08408032  0.12220463     0.35500
H394        H  0.23419085  0.05031369  0.13916351     0.40600
H395        H  0.02030419  0.21260456  0.07302452     0.40300
H396        H  0.08241772  0.24466656  0.04543486     0.35100
C397        C  0.14880278  0.25560548  0.66048430    -0.02800
C398        C  0.34370303  0.25285889  0.81817854    -0.02800
C399        C  0.16337776  0.75399437  0.81891668    -0.02800
C400        C  0.34980507  0.75475100  0.65688357    -0.02800
In401      In  0.26406115  0.00753959  0.99202064     1.36900
C402        C  0.30690909  0.07576654  0.93399066     0.77300
O403        O  0.29590532  0.94447623  0.94512415    -0.61100
O404        O  0.18747947  0.95949735  0.95253616    -0.52000
C405        C  0.31024015  0.94062790  0.55192976     0.70000
O406        O  0.35139931  0.96415986  0.52651156    -0.46900
C407        C  0.21067073  0.07418734  0.54653698     0.74700
O408        O  0.34724726  0.05747547  0.96314716    -0.58800
O409        O  0.17223968  0.04563329  0.52196700    -0.48800
O410        O  0.24624160  0.05788197  0.93418447    -0.55200
C411        C  0.23483897  0.93253714  0.93408632     0.84900
O412        O  0.24695173  0.95118488  0.54662025    -0.57100
O413        O  0.27481731  0.06660071  0.54203669    -0.60400
In414      In  0.23215624  0.50464524  0.98737225     1.36900
C415        C  0.21664410  0.43264500  0.55021945     0.77300
O416        O  0.19923331  0.44230501  0.94038835    -0.61100
O417        O  0.30712453  0.46202106  0.94277459    -0.52000
C418        C  0.19057521  0.57105740  0.92836889     0.70000
O419        O  0.14772139  0.54911893  0.95397459    -0.46900
C420        C  0.26813214  0.57682956  0.54484754     0.74700
O421        O  0.16458383  0.45669628  0.53488904    -0.58800
O422        O  0.31206171  0.55278943  0.52058945    -0.48800
O423        O  0.27495860  0.44602269  0.53519596    -0.55200
C424        C  0.25967074  0.43380185  0.92569668     0.84900
O425        O  0.25307732  0.55728143  0.93245603    -0.57100
O426        O  0.20610926  0.56166135  0.54176227    -0.60400
C427        C  0.83807637  0.24505669  0.65101618    -0.02800
C428        C  0.65620572  0.24336544  0.81578154    -0.02800
C429        C  0.85251045  0.74368434  0.80758311    -0.02800
C430        C  0.66048872  0.74046169  0.64929786    -0.02800
In431      In  0.73131629  0.99071355  0.98147600     1.36900
C432        C  0.76652423  0.91792018  0.92314218     0.77300
O433        O  0.74671488  0.93869432  0.53797852    -0.61100
O434        O  0.64130538  0.94528391  0.51601274    -0.52000
C435        C  0.76971759  0.06260494  0.53411902     0.70000
O436        O  0.81117071  0.03024787  0.51610391    -0.46900
C437        C  0.68943598  0.05858113  0.92370295     0.74700
O438        O  0.81156574  0.94737237  0.94125100    -0.58800
O439        O  0.64717040  0.03756585  0.95002705    -0.48800
O440        O  0.70477461  0.92638552  0.93478183    -0.55200
C441        C  0.68451188  0.92483152  0.54225244     0.84900
O442        O  0.70651435  0.05501856  0.52539596    -0.57100
O443        O  0.75105783  0.04257638  0.92610579    -0.60400
In444      In  0.78624695  0.49776858  0.97875316     1.36900
C445        C  0.81692069  0.42646888  0.53909361     0.77300
O446        O  0.81947126  0.55661795  0.52575854    -0.61100
O447        O  0.71118971  0.54049913  0.51786668    -0.52000
C448        C  0.82654573  0.56157563  0.91772316     0.70000
O449        O  0.86973878  0.54028526  0.94355791    -0.46900
C450        C  0.74511805  0.42185481  0.92618747     0.74700
O451        O  0.86399374  0.44443821  0.51426109    -0.58800
O452        O  0.70260227  0.45469774  0.94240755    -0.48800
O453        O  0.75728204  0.44569932  0.53451085    -0.55200
C454        C  0.75798095  0.56777591  0.53666407     0.84900
O455        O  0.76428556  0.54758782  0.92188686    -0.57100
O456        O  0.80819229  0.42942739  0.93552565    -0.60400
C457        C  0.73812215  0.70248050  0.58588128    -0.26600
C458        C  0.69465814  0.69410554  0.62297628    -0.14700
C459        C  0.68995057  0.64230486  0.63741992     0.36000
C460        C  0.71086846  0.60125286  0.60893531    -0.26000
C461        C  0.74216452  0.61083495  0.56796690    -0.15300
C462        C  0.75937564  0.66174851  0.55744474     0.37100
N463        N  0.79652579  0.67209276  0.51720218    -0.89500
H464        H  0.75354285  0.74112369  0.57749145     0.18200
H465        H  0.70209583  0.56179281  0.61873078     0.18200
N466        N  0.66105272  0.63098050  0.67992770    -0.88500
H467        H  0.80510988  0.71170227  0.51419368     0.35500
H468        H  0.74995561  0.66519229  0.98810980     0.40600
H469        H  0.61923817  0.60595550  0.67519299     0.40300
H470        H  0.69857272  0.61120148  0.69796079     0.35100
C471        C  0.68432173  0.83858811  0.64176351    -0.26600
C472        C  0.66268697  0.79116550  0.62182977    -0.14700
C473        C  0.63628837  0.79277675  0.57731451     0.36000
C474        C  0.63802720  0.83874098  0.55379506    -0.26000
C475        C  0.66615907  0.88366344  0.57272662    -0.15300
C476        C  0.68767298  0.88420671  0.61768831     0.35900
N477        N  0.71333436  0.93012096  0.63999159    -0.89500
H478        H  0.69880357  0.84101982  0.67657442     0.18200
H479        H  0.62189771  0.83818706  0.51912023     0.18200
N480        N  0.61296259  0.74697615  0.55416087    -0.88500
H481        H  0.68051197  0.93839754  0.66686893     0.35500
H482        H  0.71049171  0.96209446  0.61951833     0.40600
H483        H  0.56346248  0.75319831  0.54162502     0.40300
H484        H  0.64477391  0.74076217  0.52640681     0.35100
C485        C  0.73421579  0.73370159  0.77108349    -0.26600
C486        C  0.80534194  0.74444584  0.76511449    -0.14700
C487        C  0.82510012  0.76097074  0.72235523     0.36000
C488        C  0.77728186  0.75889335  0.68679930    -0.26000
C489        C  0.70688751  0.74489781  0.69226290    -0.15300
C490        C  0.68619099  0.73188666  0.73594400     0.37100
N491        N  0.61799293  0.71382527  0.74541784    -0.89500
H492        H  0.71593023  0.72323757  0.80365622     0.18200
H493        H  0.79539592  0.76968026  0.65419545     0.18200
N494        N  0.89209959  0.78234195  0.71467262    -0.88500
H495        H  0.59636759  0.73843195  0.76976193     0.35500
H496        H  0.62183598  0.67703886  0.75885142     0.40600
H497        H  0.88554845  0.82027119  0.70422593     0.40300
H498        H  0.91539209  0.76133245  0.68857796     0.35100
C499        C  0.88648696  0.68884256  0.87357910    -0.26600
C500        C  0.85081806  0.69106486  0.83224495    -0.14700
C501        C  0.81947568  0.64419625  0.81618600     0.36000
C502        C  0.81404456  0.60189248  0.84435039    -0.26000
C503        C  0.84489316  0.60236802  0.88650307    -0.15300
C504        C  0.88477251  0.64526149  0.90009922     0.37100
N505        N  0.92172846  0.64660485  0.94153177    -0.89500
H506        H  0.91384733  0.72237422  0.88654914     0.18200
H507        H  0.78588392  0.56792406  0.83287201     0.18200
N508        N  0.79635722  0.63731002  0.77106944    -0.88500
H509        H  0.95755057  0.61635786  0.94092177     0.35500
H510        H  0.88700061  0.64044013  0.96740070     0.40600
H511        H  0.74432744  0.62647595  0.77177664     0.40300
H512        H  0.82405261  0.60669346  0.75640220     0.35100
C513        C  0.82837483  0.84000464  0.82224149    -0.26600
C514        C  0.81949495  0.78860396  0.83671712    -0.14700
C515        C  0.77934226  0.78219743  0.87603129     0.36000
C516        C  0.76309979  0.82521933  0.90327343    -0.26000
C517        C  0.78366036  0.87494066  0.89212819    -0.15300
C518        C  0.81446756  0.88289794  0.85051088     0.37100
N519        N  0.83079649  0.93430730  0.83691708    -0.89500
H520        H  0.85309805  0.84637353  0.79050014     0.18200
H521        H  0.73432729  0.81957719  0.93375673     0.18200
N522        N  0.75096058  0.73327125  0.88757143    -0.88500
H523        H  0.85184258  0.93353344  0.80483790     0.35500
H524        H  0.86943340  0.94863071  0.85825144     0.40600
H525        H  0.69708352  0.73668179  0.88811795     0.40300
H526        H  0.76735161  0.72483178  0.91983828     0.35100
C527        C  0.70755831  0.28432548  0.88942183    -0.26600
C528        C  0.68325541  0.29010610  0.84521685    -0.14700
C529        C  0.68278105  0.34115728  0.82804789     0.36000
C530        C  0.70253152  0.38356666  0.85503678    -0.26000
C531        C  0.72334329  0.37691201  0.89902631    -0.15300
C532        C  0.72597016  0.32712409  0.91632758     0.37100
N533        N  0.74565225  0.31994507  0.96182095    -0.89500
H534        H  0.71296751  0.24688048  0.90399788     0.18200
H535        H  0.70117133  0.42201945  0.84153941     0.18200
N536        N  0.65874062  0.35036168  0.78370620    -0.88500
H537        H  0.78699771  0.29391253  0.96223299     0.35500
H538        H  0.70401336  0.30293010  0.97803967     0.40600
H539        H  0.69830675  0.36865231  0.76647251     0.40300
H540        H  0.61662231  0.37566470  0.78570813     0.35100
C541        C  0.71026131  0.10466702  0.85436176    -0.26600
C542        C  0.67134995  0.10042217  0.89320351    -0.14700
C543        C  0.62321952  0.13942158  0.90418501     0.36000
C544        C  0.62019281  0.18383110  0.87857135    -0.26000
C545        C  0.66293294  0.19083875  0.84070552    -0.15300
C546        C  0.70523358  0.14778428  0.82727501     0.37100
N547        N  0.74190578  0.14547171  0.78590492    -0.89500
H548        H  0.74550500  0.07380220  0.84468122     0.18200
H549        H  0.58506194  0.21416321  0.88938719     0.18200
N550        N  0.57860610  0.13610844  0.94202294    -0.88500
H551        H  0.72386197  0.11371034  0.76716198     0.35500
H552        H  0.79431124  0.13927792  0.79267629     0.40600
H553        H  0.60894282  0.13254603  0.97068415     0.40300
H554        H  0.54801472  0.10308979  0.93795238     0.35100
C555        C  0.81677114  0.25055077  0.73696055    -0.26600
C556        C  0.78899420  0.24366784  0.69344619    -0.14700
C557        C  0.71513678  0.24049465  0.69145505     0.36000
C558        C  0.67424236  0.24391918  0.73008901    -0.26000
C559        C  0.70270161  0.24468071  0.77299894    -0.15300
C560        C  0.77613757  0.24914973  0.77571498     0.37100
N561        N  0.81070402  0.25150302  0.81806712    -0.89500
H562        H  0.87121619  0.25701843  0.74233059     0.18200
H563        H  0.61898213  0.24536598  0.72547947     0.18200
N564        N  0.67895182  0.23673486  0.65033653    -0.88500
H565        H  0.83812502  0.28623495  0.82034033     0.35500
H566        H  0.84639204  0.22121572  0.81925722     0.40600
H567        H  0.64864718  0.20331690  0.65036781     0.40300
H568        H  0.64596203  0.26860185  0.64791389     0.35100
C569        C  0.86459246  0.29624326  0.58240982    -0.26600
C570        C  0.82599666  0.29417104  0.62267352    -0.14700
C571        C  0.79000193  0.33987549  0.63654416     0.36000
C572        C  0.78949664  0.38287677  0.60898780    -0.26000
C573        C  0.82753833  0.38352306  0.56937278    -0.15300
C574        C  0.86682122  0.34005918  0.55660386     0.37100
N575        N  0.90867190  0.33873743  0.51725043    -0.89500
H576        H  0.89595512  0.26350721  0.57179870     0.18200
H577        H  0.75993264  0.41671882  0.61919444     0.18200
N578        N  0.75760914  0.34506379  0.67920526    -0.88500
H579        H  0.94630750  0.36750208  0.52043028     0.35500
H580        H  0.87755894  0.34644896  0.48967378     0.40600
H581        H  0.70563478  0.35464128  0.67429863     0.40300
H582        H  0.78116991  0.37559700  0.69683293     0.35100
C583        C  0.75158032  0.15232534  0.55970153    -0.26600
C584        C  0.79146273  0.10777173  0.56189537    -0.14700
C585        C  0.85169829  0.10896270  0.58794813     0.36000
C586        C  0.86740235  0.15371714  0.61382668    -0.26000
C587        C  0.82247308  0.19714581  0.61753462    -0.15300
C588        C  0.76797885  0.19719770  0.58433529     0.37100
N589        N  0.73372214  0.24351171  0.57063234    -0.89500
H590        H  0.70869102  0.15351012  0.53636033     0.18200
H591        H  0.91735446  0.15410728  0.62851822     0.18200
N592        N  0.89723245  0.06502629  0.58788883    -0.88500
H593        H  0.68044707  0.23691915  0.56856405     0.35500
H594        H  0.74988815  0.25080002  0.53818941     0.40600
H595        H  0.87032903  0.03442022  0.60188163     0.40300
H596        H  0.94007584  0.07209599  0.60845606     0.35100
C597        C  0.46387475  0.70253608  0.64325247    -0.26600
C598        C  0.42996093  0.74435351  0.66587635    -0.14700
C599        C  0.47530592  0.78100565  0.68726764     0.36000
C600        C  0.54778671  0.77549909  0.68347950    -0.26000
C601        C  0.58049686  0.73533675  0.65836140    -0.15300
C602        C  0.53554396  0.69894575  0.63735794     0.37100
N603        N  0.55960778  0.66069482  0.60580642    -0.89500
H604        H  0.43600880  0.67415389  0.62380365     0.18200
H605        H  0.57970350  0.80493232  0.69939125     0.18200
N606        N  0.45130273  0.82605521  0.71149096    -0.88500
H607        H  0.54342442  0.62446238  0.61631846     0.35500
H608        H  0.53578512  0.66694785  0.57506301     0.40600
H609        H  0.39805025  0.82697537  0.71498664     0.40300
H610        H  0.46514990  0.85843675  0.69335779     0.35100
C611        C  0.29880255  0.71419493  0.58331331    -0.26600
C612        C  0.32005319  0.70865647  0.62808580    -0.14700
C613        C  0.31636956  0.65789737  0.64588323     0.36000
C614        C  0.29966620  0.61528882  0.61826571    -0.26000
C615        C  0.28632428  0.62155524  0.57310704    -0.15300
C616        C  0.28432233  0.67118508  0.55576282     0.37100
N617        N  0.26688880  0.67810976  0.50992942    -0.89500
H618        H  0.29295685  0.75158908  0.56877898     0.18200
H619        H  0.29864018  0.57696959  0.63204329     0.18200
N620        N  0.33436352  0.64879964  0.69133831    -0.88500
H621        H  0.30814801  0.69694306  0.49484156     0.35500
H622        H  0.22382063  0.70245593  0.50904801     0.40600
H623        H  0.37639628  0.62338062  0.69175854     0.40300
H624        H  0.29246567  0.63037364  0.70596042     0.35100
C625        C  0.31302900  0.85172148  0.65017487    -0.26600
C626        C  0.34772099  0.80775366  0.63200076    -0.14700
C627        C  0.38448255  0.81540172  0.59152360     0.36000
C628        C  0.37553111  0.86076456  0.56734221    -0.26000
C629        C  0.33252075  0.90037925  0.58303999    -0.15300
C630        C  0.30473734  0.89704455  0.62620425     0.37100
N631        N  0.26937234  0.93966195  0.64713364    -0.89500
H632        H  0.29045469  0.85144062  0.68305000     0.18200
H633        H  0.39978872  0.86376517  0.53496594     0.18200
N634        N  0.43044927  0.77688384  0.57408930    -0.88500
H635        H  0.22536737  0.94835086  0.62851404     0.35500
H636        H  0.30261943  0.97145198  0.64739744     0.40600
H637        H  0.47893749  0.79428557  0.57280551     0.40300
H638        H  0.41521585  0.76699587  0.54152810     0.35100
C639        C  0.96677545  0.79013977  0.82905013    -0.26600
C640        C  0.93301266  0.75326980  0.80108771    -0.14700
C641        C  0.97816119  0.71923264  0.77649865     0.36000
C642        C  0.05071891  0.72469676  0.77965148    -0.26000
C643        C  0.08362442  0.76136151  0.80838783    -0.15300
C644        C  0.03835452  0.79382955  0.83403739     0.37100
N645        N  0.06223656  0.82691398  0.86979778    -0.89500
H646        H  0.93877139  0.81300957  0.85331649     0.18200
H647        H  0.08236423  0.69631106  0.76211785     0.18200
N648        N  0.95385501  0.67465147  0.75206702    -0.88500
H649        H  0.04039564  0.81495438  0.89969597     0.35500
H650        H  0.04516156  0.86450729  0.86395058     0.40600
H651        H  0.91308747  0.68404222  0.73105369     0.40300
H652        H  0.93829363  0.64689461  0.77449263     0.35100
C653        C  0.32748580  0.74928148  0.74225721    -0.26600
C654        C  0.30102823  0.75651081  0.69904367    -0.14700
C655        C  0.22718097  0.76270803  0.69562568     0.36000
C656        C  0.18557331  0.76466784  0.73385151    -0.26000
C657        C  0.21157422  0.75486773  0.77666851    -0.15300
C658        C  0.28473980  0.74888162  0.78025165     0.37100
N659        N  0.31653220  0.74119589  0.82270492    -0.89500
H660        H  0.38208871  0.74248099  0.74712797     0.18200
H661        H  0.13153768  0.77314909  0.72885721     0.18200
N662        N  0.19066927  0.76479353  0.65395114    -0.88500
H663        H  0.34392327  0.70637665  0.82136833     0.35500
H664        H  0.35203762  0.77102461  0.82847850     0.40600
H665        H  0.21075639  0.79272470  0.63329353     0.40300
H666        H  0.19131718  0.72854846  0.63811150     0.35100
C667        C  0.12458681  0.69671610  0.88273731    -0.26600
C668        C  0.16412658  0.70088732  0.84311280    -0.14700
C669        C  0.19728302  0.65485561  0.82732192     0.36000
C670        C  0.20354650  0.61238163  0.85532655    -0.26000
C671        C  0.17154465  0.61187925  0.89704618    -0.15300
C672        C  0.12851131  0.65326101  0.90990353     0.37100
N673        N  0.09209917  0.65248448  0.95159844    -0.89500
H674        H  0.09453890  0.72935968  0.89459134     0.18200
H675        H  0.23356918  0.57916311  0.84415336     0.18200
N676        N  0.22193041  0.64914473  0.78261400    -0.88500
H677        H  0.06278954  0.68613258  0.95616664     0.35500
H678        H  0.12874305  0.65247933  0.97725524     0.40600
H679        H  0.19497833  0.61871733  0.76707509     0.40300
H680        H  0.27409153  0.63863133  0.78401983     0.35100
C681        C  0.18717743  0.85024735  0.83177519    -0.26600
C682        C  0.19207995  0.79967555  0.84875569    -0.14700
C683        C  0.22323876  0.79506376  0.89170590     0.36000
C684        C  0.23511635  0.83921584  0.91851081    -0.26000
C685        C  0.22098933  0.88860506  0.90329488    -0.15300
C686        C  0.20001704  0.89450561  0.85856851     0.37100
N687        N  0.19026496  0.94434514  0.83933170    -0.89500
H688        H  0.16798289  0.85546915  0.79820432     0.18200
H689        H  0.25640823  0.83475217  0.95170583     0.18200
N690        N  0.24658209  0.74664923  0.90809364    -0.88500
H691        H  0.22591901  0.94754605  0.81341095     0.35500
H692        H  0.20123512  0.97427543  0.86213202     0.40600
H693        H  0.22155842  0.74078069  0.93831074     0.40300
H694        H  0.29961546  0.74929634  0.91459922     0.35100
C695        C  0.45878125  0.21868751  0.78603905    -0.26600
C696        C  0.42422298  0.25801742  0.81089505    -0.14700
C697        C  0.46783217  0.29184280  0.83641258     0.36000
C698        C  0.53947058  0.28937913  0.83216508    -0.26000
C699        C  0.57522174  0.25035076  0.80758001    -0.15300
C700        C  0.53161887  0.21319843  0.78498825     0.37100
N701        N  0.55761142  0.16758937  0.76244936    -0.89500
H702        H  0.42801908  0.18934092  0.76903225     0.18200
H703        H  0.56579198  0.31604810  0.85427448     0.18200
N704        N  0.44228534  0.32520818  0.87148706    -0.88500
H705        H  0.53993154  0.13560570  0.77971606     0.35500
H706        H  0.61110565  0.16547249  0.76285605     0.40600
H707        H  0.45825927  0.36294178  0.86529970     0.40300
H708        H  0.46432815  0.31425533  0.90172593     0.35100
C709        C  0.24898465  0.34231909  0.90515280    -0.26600
C710        C  0.27350322  0.39073021  0.89377839    -0.14700
C711        C  0.30871446  0.39560921  0.85289668     0.36000
C712        C  0.32463428  0.35061856  0.82759435    -0.26000
C713        C  0.31296444  0.30051743  0.84438808    -0.15300
C714        C  0.26831152  0.29741085  0.88195112     0.37100
N715        N  0.23877354  0.24975334  0.89597535    -0.89500
H716        H  0.21445337  0.33882614  0.93279167     0.18200
H717        H  0.35248798  0.35459393  0.79656818     0.18200
N718        N  0.32880434  0.44484612  0.83599102    -0.88500
H719        H  0.25216888  0.24458580  0.92939064     0.35500
H720        H  0.18491766  0.25292356  0.89433211     0.40600
H721        H  0.31244545  0.47514064  0.85695801     0.40300
H722        H  0.30298807  0.44959628  0.80568248     0.35100
C723        C  0.37045350  0.20196451  0.88811754    -0.26600
C724        C  0.33916527  0.20204306  0.84528278    -0.14700
C725        C  0.31007338  0.15452200  0.82943909     0.36000
C726        C  0.30169931  0.11347482  0.85877351    -0.26000
C727        C  0.32676339  0.11633815  0.90261638    -0.15300
C728        C  0.36417459  0.16016869  0.91685362     0.37100
N729        N  0.39121533  0.16382490  0.96150929    -0.89500
H730        H  0.39628254  0.23628932  0.90052464     0.18200
H731        H  0.27562211  0.07871396  0.84699762     0.18200
N732        N  0.29165632  0.14614095  0.78357019    -0.88500
H733        H  0.41447818  0.19975174  0.96742891     0.35500
H734        H  0.43049773  0.13631954  0.96411528     0.40600
H735        H  0.23952664  0.13557483  0.78197868     0.40300
H736        H  0.32095526  0.11520810  0.77090072     0.35100
C737        C  0.03299648  0.21543196  0.68677960    -0.26600
C738        C  0.06795845  0.25887990  0.66915625    -0.14700
C739        C  0.02375757  0.29960572  0.65522153     0.36000
C740        C  0.95287201  0.29670897  0.66176242    -0.26000
C741        C  0.91795778  0.24919703  0.66633343    -0.15300
C742        C  0.95971821  0.21061046  0.68696676     0.37100
N743        N  0.93066238  0.16735839  0.70973232    -0.89500
H744        H  0.06334715  0.18366763  0.69928803     0.18200
H745        H  0.92525793  0.33238711  0.65692320     0.18200
N746        N  0.04680618  0.34248842  0.63009955    -0.88500
H747        H  0.95184704  0.13318239  0.69648305     0.35500
H748        H  0.87730868  0.16513427  0.70516774     0.40600
H749        H  0.03227966  0.37669987  0.64680918     0.40300
H750        H  0.02216284  0.34137371  0.59899988     0.35100
C751        C  0.26948515  0.25649901  0.69593593    -0.26600
C752        C  0.19681309  0.25361169  0.70294268    -0.14700
C753        C  0.17511197  0.25073734  0.74786952     0.36000
C754        C  0.22435421  0.24657593  0.78209041    -0.26000
C755        C  0.29663908  0.25129348  0.77537824    -0.15300
C756        C  0.31806415  0.25925396  0.73096521     0.37100
N757        N  0.38763235  0.27296697  0.72050299    -0.89500
H758        H  0.28919829  0.25928109  0.66233645     0.18200
H759        H  0.20479003  0.24112703  0.81520540     0.18200
N760        N  0.10393392  0.25356077  0.76030147    -0.88500
H761        H  0.38690242  0.30899446  0.70548369     0.35500
H762        H  0.40673450  0.24585401  0.69725862     0.40600
H763        H  0.09730213  0.28550902  0.78181569     0.40300
H764        H  0.09173663  0.22036693  0.77785094     0.35100
C765        C  0.19105848  0.39706351  0.62525346    -0.26600
C766        C  0.20981040  0.38899886  0.58065663    -0.14700
C767        C  0.22284094  0.33839127  0.56512428     0.36000
C768        C  0.20767063  0.29670539  0.59187272    -0.26000
C769        C  0.17730196  0.30336333  0.63451941    -0.15300
C770        C  0.17889713  0.35508094  0.65315830     0.37100
N771        N  0.16387740  0.36691648  0.69908489    -0.89500
H772        H  0.18573516  0.43613951  0.63851021     0.18200
H773        H  0.22001622  0.25902978  0.57808518     0.18200
N774        N  0.24878241  0.32802223  0.52125564    -0.88500
H775        H  0.20361198  0.35270270  0.71896862     0.35500
H776        H  0.11715730  0.35022654  0.70822966     0.40600
H777        H  0.26996957  0.35029580  0.01034873     0.40300
H778        H  0.18321962  0.35060631  0.00042022     0.35100
C779        C  0.19708454  0.16226948  0.64823167    -0.26600
C780        C  0.15738779  0.20398735  0.63229724    -0.14700
C781        C  0.12301083  0.19584153  0.59046672     0.36000
C782        C  0.13763322  0.15167356  0.56378069    -0.26000
C783        C  0.18463588  0.11436467  0.57809193    -0.15300
C784        C  0.21179152  0.11880631  0.62163619     0.37100
N785        N  0.25330948  0.07892079  0.64040583    -0.89500
H786        H  0.21831096  0.16258262  0.68156850     0.18200
H787        H  0.11477002  0.14793216  0.53083843     0.18200
N788        N  0.07564804  0.23351449  0.57394602    -0.88500
H789        H  0.29897795  0.07483746  0.62219481     0.35500
H790        H  0.22539945  0.04446938  0.63812209     0.40600
H791        H  0.02776812  0.21559397  0.56888869     0.40300
H792        H  0.09347308  0.24575796  0.54306581     0.35100
loop_ 
_geom_bond_atom_site_label_1 
_geom_bond_atom_site_label_2 
_geom_bond_distance 
_geom_bond_site_symmetry_2 
_ccdc_geom_bond_type 
C1          C342   1.589       .  S
C1          C356   1.573       .  S
C1          C373   1.581       .  S
C1          C384   1.581       .  S
C2          C300   1.581       .  S
C2          C317   1.566       .  S
C2          C328   1.560       .  S
C2          C359   1.569       .  S
C3          C247   1.585       .  S
C3          C261   1.576       .  S
C3          C272   1.567       .  S
C3          C286   1.568       .  S
C4          C202   1.597       .  S
C4          C216   1.567       .  S
C4          C230   1.580       .  S
C4          C258   1.580       .  S
In5           O7   2.216   1_545  S
In5           O8   2.245   1_545  S
In5          O12   2.237       .  S
In5          O14   2.214       .  S
In5         O412   2.217   1_545  S
In5         O406   2.255   1_545  S
In5         O409   2.267       .  S
In5         O413   2.204       .  S
C6           O12   1.270       .  A
C6           O14   1.263       .  A
C6          C331   1.472       .  S
O7           C15   1.263       .  A
O8           C15   1.271       .  A
C9           O16   1.264       .  A
C9           O10   1.271       .  A
C9          C233   1.482       .  S
O10        In401   2.255   1_564  S
C11          O13   1.271       .  A
C11          O17   1.263       .  A
C11         C387   1.483       .  S
O13        In401   2.269   1_554  S
C15         C289   1.470       .  S
O16        In401   2.224   1_564  S
O17        In401   2.208   1_554  S
In18         O20   2.210       .  S
In18         O21   2.231       .  S
In18         O29   2.192       .  S
In18         O23   2.248       .  S
In18        O421   2.239       .  S
In18        O422   2.228       .  S
In18        O423   2.219       .  S
In18        O426   2.201       .  S
C19          O25   1.273       .  A
C19          O27   1.267       .  A
C19         C370   1.481       .  S
O20          C28   1.269       .  A
O21          C28   1.273       .  A
C22          O29   1.266       .  A
C22          O23   1.275       .  A
C22         C275   1.474       .  S
C24          O26   1.273       .  A
C24          O30   1.265       .  A
C24         C219   1.464       .  S
O25        In414   2.250   1_554  S
O26        In414   2.231   1_554  S
O27        In414   2.231   1_554  S
C28         C314   1.475       .  S
O30        In414   2.203   1_554  S
C31         C160   1.600       .  S
C31         C174   1.565       .  S
C31         C191   1.602       .  S
C31         C345   1.612       .  S
C32         C132   1.578       .  S
C32         C149   1.568       .  S
C32         C163   1.569       .  S
C32         C303   1.596       .  S
C33          C90   1.570       .  S
C33         C104   1.567       .  S
C33         C118   1.574       .  S
C33         C244   1.591       .  S
C34          C62   1.567       .  S
C34          C76   1.569       .  S
C34          C93   1.574       .  S
C34         C205   1.580       .  S
In35         O42   2.243       .  S
In35         O43   2.240   1_565  S
In35         O44   2.220       .  S
In35         O47   2.204   1_565  S
In35        O433   2.203       .  S
In35        O434   2.234       .  S
In35        O442   2.204   1_565  S
In35        O436   2.259   1_565  S
C36          O42   1.271       .  A
C36          O44   1.263       .  A
C36         C121   1.472       .  S
O37        In431   2.211   1_554  S
O37          C45   1.265       .  A
O38        In431   2.235   1_554  S
O38          C45   1.269       .  A
C39          O46   1.264       .  A
C39          O40   1.272       .  A
C39         C188   1.482       .  S
O40        In431   2.260   1_544  S
C41          O43   1.270       .  A
C41          O47   1.264       .  A
C41         C146   1.474       .  S
C45          C79   1.469       .  S
O46        In431   2.195   1_544  S
In48         O59   2.202       .  S
In48         O53   2.238       .  S
In48         O56   2.247       .  S
In48         O60   2.224       .  S
In48        O446   2.225       .  S
In48        O447   2.239       .  S
In48        O451   2.225       .  S
In48        O453   2.184       .  S
C49          O55   1.274       .  A
C49          O57   1.265       .  A
C49         C177   1.468       .  S
O50        In444   2.209   1_554  S
O50          C58   1.265       .  A
O51        In444   2.229   1_554  S
O51          C58   1.272       .  A
C52          O59   1.266       .  A
C52          O53   1.272       .  A
C52         C107   1.473       .  S
C54          O56   1.272       .  A
C54          O60   1.265       .  A
C54         C135   1.474       .  S
O55        In444   2.223   1_554  S
O57        In444   2.192   1_554  S
C58          C65   1.465       .  S
C61          C62   1.418       .  A
C61          C66   1.400       .  A
C61          H68   1.080       .  S
C62          C63   1.422       .  A
C63          C64   1.406       .  A
C63          N70   1.430       .  S
C64          C65   1.397       .  A
C64          H69   1.084       .  S
C65          C66   1.401       .  A
C66          N67   1.437       .  S
N67          H71   1.046       .  S
N67         H468   1.046   1_554  S
N70          H73   1.045       .  S
N70          H74   1.044       .  S
H72         N463   1.046       .  S
C75          C76   1.415       .  A
C75          C80   1.402       .  A
C75          H82   1.081       .  S
C76          C77   1.432       .  A
C77          C78   1.400       .  A
C77          N84   1.435       .  S
C78          C79   1.394       .  A
C78          H83   1.085       .  S
C79          C80   1.411       .  A
C80          N81   1.439       .  S
N81          H85   1.046       .  S
N81          H86   1.044       .  S
N84          H87   1.040       .  S
N84          H88   1.046       .  S
C89          C90   1.416       .  A
C89          C94   1.404       .  A
C89          H96   1.081       .  S
C90          C91   1.418       .  A
C91          C92   1.412       .  A
C91          N98   1.431       .  S
C92          C93   1.420       .  A
C92          H97   1.083       .  S
C93          C94   1.420       .  A
C94          N95   1.431       .  S
N95          H99   1.046       .  S
N95         H100   1.046       .  S
N98         H101   1.045       .  S
N98         H102   1.046       .  S
C103        C104   1.420       .  A
C103        C108   1.397       .  A
C103        H110   1.082       .  S
C104        C105   1.430       .  A
C105        C106   1.404       .  A
C105        N112   1.430       .  S
C106        C107   1.396       .  A
C106        H111   1.084       .  S
C107        C108   1.405       .  A
C108        N109   1.432       .  S
N109        H113   1.045       .  S
N109        H114   1.043       .  S
N112        H115   1.046       .  S
N112        H116   1.046       .  S
C117        C118   1.419       .  A
C117        C122   1.406       .  A
C117        H124   1.083       .  S
C118        C119   1.429       .  A
C119        C120   1.404       .  A
C119        N126   1.432       .  S
C120        C121   1.397       .  A
C120        H125   1.085       .  S
C121        C122   1.403       .  A
C122        N123   1.438       .  S
N123        H127   1.046       .  S
N123        H128   1.045       .  S
N126        H129   1.046       .  S
N126        H130   1.045       .  S
C131        C132   1.418       .  A
C131        C136   1.405       .  A
C131        H138   1.078       .  S
C132        C133   1.431       .  A
C133        C134   1.405       .  A
C133        N140   1.432       .  S
C134        C135   1.394       .  A
C134        H139   1.084       .  S
C135        C136   1.403       .  A
C136        N137   1.431       .  S
N137        H141   1.045       .  S
N137        H142   1.045       .  S
N140        H143   1.045       .  S
N140        H144   1.045       .  S
C145        C146   1.397       .  A
C145        C150   1.403       .  A
C145        H152   1.085       .  S
C146        C147   1.407       .  A
C147        C148   1.397       .  A
C147        N154   1.433       .  S
C148        C149   1.419       .  A
C148        H153   1.083       .  S
C149        C150   1.432       .  A
C150        N151   1.432       .  S
N151        H155   1.046       .  S
N151        H156   1.046       .  S
N154        H157   1.045       .  S
N154        H158   1.045       .  S
C159        C160   1.418       .  A
C159        C164   1.407       .  A
C159        H166   1.076       .  S
C160        C161   1.436       .  A
C161        C162   1.411       .  A
C161        N168   1.419       .  S
C162        C163   1.398       .  A
C162        H167   1.080       .  S
C163        C164   1.425       .  A
C164        N165   1.434       .  S
N165        H169   1.046       .  S
N165        H170   1.045       .  S
N168        H171   1.046       .  S
N168        H172   1.046       .  S
C173        C174   1.423       .  A
C173        C178   1.390       .  A
C173        H180   1.084       .  S
C174        C175   1.426       .  A
C175        C176   1.405       .  A
C175        N182   1.430       .  S
C176        C177   1.401       .  A
C176        H181   1.084       .  S
C177        C178   1.404       .  A
C178        N179   1.433       .  S
N179        H183   1.045       .  S
N179        H184   1.044   1_554  S
N182        H185   1.046       .  S
N182        H186   1.046       .  S
C187        C188   1.393       .  A
C187        C192   1.399       .  A
C187        H194   1.085       .  S
C188        C189   1.402       .  A
C189        C190   1.412       .  A
C189        N196   1.438       .  S
C190        C191   1.425       .  A
C190        H195   1.066       .  S
C191        C192   1.440       .  A
C192        N193   1.437       .  S
N193        H197   1.046       .  S
N193        H198   1.045       .  S
N196        H199   1.045       .  S
N196        H200   1.046       .  S
C201        C202   1.424       .  A
C201        C206   1.402       .  A
C201        H208   1.073       .  S
C202        C203   1.433       .  A
C203        C204   1.415       .  A
C203        N210   1.437       .  S
C204        C205   1.419       .  A
C204        H209   1.083       .  S
C205        C206   1.420       .  A
C206        N207   1.432       .  S
N207        H211   1.046       .  S
N207        H212   1.046       .  S
N210        H213   1.037       .  S
N210        H214   1.046       .  S
C215        C216   1.416       .  A
C215        C220   1.401       .  A
C215        H222   1.077       .  S
C216        C217   1.432       .  A
C217        C218   1.401       .  A
C217        N224   1.432       .  S
C218        C219   1.391       .  A
C218        H223   1.084       .  S
C219        C220   1.399       .  A
C220        N221   1.429       .  S
N221        H225   1.046   1_554  S
N221        H226   1.045       .  S
N224        H227   1.045       .  S
N224        H228   1.045       .  S
C229        C230   1.419       .  A
C229        C234   1.401       .  A
C229        H236   1.080       .  S
C230        C231   1.425       .  A
C231        C232   1.405       .  A
C231        N238   1.425       .  S
C232        C233   1.394       .  A
C232        H237   1.084       .  S
C233        C234   1.411       .  A
C234        N235   1.431       .  S
N235        H239   1.044       .  S
N235        H240   1.044       .  S
N238        H241   1.043       .  S
N238        H242   1.046       .  S
C243        C244   1.417       .  A
C243        C248   1.398   1_655  A
C243        H250   1.075       .  S
C244        C245   1.433       .  A
C245        C246   1.412   1_655  A
C245        N252   1.433       .  S
C246        C247   1.418       .  A
C246        H251   1.084       .  S
C247        C248   1.426       .  A
C248        N249   1.433       .  S
N249        H253   1.046       .  S
N249        H254   1.046       .  S
N252        H255   1.040       .  S
N252        H256   1.041       .  S
C257        C258   1.410       .  A
C257        C262   1.411       .  A
C257        H264   1.080       .  S
C258        C259   1.440       .  A
C259        C260   1.401       .  A
C259        N266   1.437       .  S
C260        C261   1.407       .  A
C260        H265   1.078       .  S
C261        C262   1.427       .  A
C262        N263   1.431       .  S
N263        H267   1.045       .  S
N263        H268   1.046       .  S
N266        H269   1.039       .  S
N266        H270   1.042       .  S
C271        C272   1.423       .  A
C271        C276   1.406       .  A
C271        H278   1.080       .  S
C272        C273   1.423       .  A
C273        C274   1.404       .  A
C273        N280   1.430       .  S
C274        C275   1.399       .  A
C274        H279   1.084       .  S
C275        C276   1.403       .  A
C276        N277   1.438       .  S
N277        H281   1.046       .  S
N277        H282   1.044       .  S
N280        H283   1.046       .  S
N280        H284   1.045       .  S
C285        C286   1.419       .  A
C285        C290   1.406       .  A
C285        H292   1.084       .  S
C286        C287   1.430       .  A
C287        C288   1.400       .  A
C287        N294   1.431       .  S
C288        C289   1.393       .  A
C288        H293   1.085       .  S
C289        C290   1.412       .  A
C290        N291   1.438       .  S
N291        H295   1.046       .  S
N291        H296   1.044       .  S
N294        H297   1.044       .  S
N294        H298   1.046       .  S
C299        C300   1.417       .  A
C299        C304   1.415       .  A
C299        H306   1.083       .  S
C300        C301   1.425       .  A
C301        C302   1.396       .  A
C301        N308   1.434       .  S
C302        C303   1.419       .  A
C302        H307   1.075       .  S
C303        C304   1.437       .  A
C304        N305   1.434       .  S
N305        H309   1.042       .  S
N305        H310   1.039       .  S
N308        H311   1.046       .  S
N308        H312   1.046       .  S
C313        C314   1.393       .  A
C313        C318   1.396       .  A
C313        H320   1.079       .  S
C314        C315   1.412       .  A
C315        C316   1.407       .  A
C315        N322   1.438       .  S
C316        C317   1.419       .  A
C316        H321   1.084       .  S
C317        C318   1.430       .  A
C318        N319   1.434       .  S
N319        H323   1.046       .  S
N319        H324   1.046       .  S
N322        H325   1.043       .  S
N322        H326   1.046       .  S
C327        C328   1.417       .  A
C327        C332   1.402       .  A
C327        H334   1.078       .  S
C328        C329   1.426       .  A
C329        C330   1.405       .  A
C329        N336   1.432       .  S
C330        C331   1.400       .  A
C330        H335   1.084       .  S
C331        C332   1.403       .  A
C332        N333   1.438       .  S
N333        H337   1.046       .  S
N333        H338   1.045       .  S
N336        H339   1.046       .  S
N336        H340   1.046       .  S
C341        C342   1.426       .  A
C341        C346   1.421   1_455  A
C341        H348   1.083       .  S
C342        C343   1.427       .  A
C343        C344   1.391   1_455  A
C343        N350   1.429       .  S
C344        C345   1.413       .  A
C344        H349   1.079       .  S
C345        C346   1.435       .  A
C346        N347   1.441       .  S
N347        H351   1.045       .  S
N347        H352   1.042       .  S
N350        H353   1.046       .  S
N350        H354   1.046       .  S
C355        C356   1.424       .  A
C355        C360   1.408       .  A
C355        H362   1.083       .  S
C356        C357   1.416       .  A
C357        C358   1.401       .  A
C357        N364   1.429       .  S
C358        C359   1.417       .  A
C358        H363   1.074       .  S
C359        C360   1.416       .  A
C360        N361   1.430       .  S
N361        H365   1.046       .  S
N361        H366   1.046       .  S
N364        H367   1.046       .  S
N364        H368   1.046       .  S
C369        C370   1.399       .  A
C369        C374   1.412       .  A
C369        H376   1.084       .  S
C370        C371   1.401       .  A
C371        C372   1.390       .  A
C371        N378   1.426       .  S
C372        C373   1.413       .  A
C372        H377   1.076       .  S
C373        C374   1.444       .  A
C374        N375   1.435       .  S
N375        H379   1.043       .  S
N375        H380   1.043       .  S
N378        H777   1.046       .  S
N378        H778   1.044       .  S
H381        N774   1.045       .  S
H382        N774   1.041       .  S
C383        C384   1.418       .  A
C383        C388   1.394       .  A
C383        H390   1.079       .  S
C384        C385   1.430       .  A
C385        C386   1.411       .  A
C385        N392   1.433       .  S
C386        C387   1.400       .  A
C386        H391   1.084       .  S
C387        C388   1.410       .  A
C388        N389   1.432       .  S
N389        H393   1.044       .  S
N389        H394   1.044       .  S
N392        H395   1.045       .  S
N392        H396   1.046       .  S
C397        C738   1.588       .  S
C397        C752   1.576       .  S
C397        C769   1.578       .  S
C397        C780   1.574       .  S
C398        C696   1.580       .  S
C398        C713   1.566       .  S
C398        C724   1.566       .  S
C398        C755   1.571       .  S
C399        C643   1.586       .  S
C399        C657   1.576       .  S
C399        C668   1.570       .  S
C399        C682   1.568       .  S
C400        C598   1.596       .  S
C400        C612   1.567       .  S
C400        C626   1.578       .  S
C400        C654   1.580       .  S
In401       O403   2.219   1_545  S
In401       O404   2.252   1_545  S
In401       O408   2.254       .  S
In401       O410   2.220       .  S
C402        O408   1.270       .  A
C402        O410   1.262       .  A
C402        C727   1.479       .  S
O403        C411   1.263       .  A
O404        C411   1.271       .  A
C405        O412   1.264       .  A
C405        O406   1.270       .  A
C405        C629   1.478       .  S
C407        O409   1.271       .  A
C407        O413   1.263       .  A
C407        C783   1.479       .  S
C411        C685   1.473       .  S
In414       O416   2.212       .  S
In414       O417   2.247       .  S
In414       O425   2.201       .  S
In414       O419   2.244       .  S
C415        O421   1.274       .  A
C415        O423   1.268       .  A
C415        C766   1.476       .  S
O416        C424   1.268       .  A
O417        C424   1.273       .  A
C418        O425   1.266       .  A
C418        O419   1.275       .  A
C418        C671   1.476       .  S
C420        O422   1.273       .  A
C420        O426   1.265       .  A
C420        C615   1.462       .  S
C424        C710   1.478       .  S
C427        C556   1.591       .  S
C427        C570   1.563       .  S
C427        C587   1.607       .  S
C427        C741   1.614       .  S
C428        C528   1.571       .  S
C428        C545   1.573       .  S
C428        C559   1.570       .  S
C428        C699   1.595       .  S
C429        C486   1.565       .  S
C429        C500   1.566       .  S
C429        C514   1.575       .  S
C429        C640   1.590       .  S
C430        C458   1.568       .  S
C430        C472   1.567       .  S
C430        C489   1.570       .  S
C430        C601   1.578       .  S
In431       O438   2.251       .  S
In431       O439   2.247   1_565  S
In431       O440   2.212       .  S
In431       O443   2.195   1_565  S
C432        O438   1.271       .  A
C432        O440   1.263       .  A
C432        C517   1.472       .  S
O433        C441   1.264       .  A
O434        C441   1.270       .  A
C435        O442   1.264       .  A
C435        O436   1.271       .  A
C435        C584   1.481       .  S
C437        O439   1.270       .  A
C437        O443   1.264       .  A
C437        C542   1.475       .  S
C441        C475   1.465       .  S
In444       O455   2.203       .  S
In444       O449   2.237       .  S
In444       O452   2.234       .  S
In444       O456   2.211       .  S
C445        O451   1.273       .  A
C445        O453   1.264       .  A
C445        C573   1.466       .  S
O446        C454   1.266       .  A
O447        C454   1.272       .  A
C448        O455   1.265       .  A
C448        O449   1.272       .  A
C448        C503   1.473       .  S
C450        O452   1.272       .  A
C450        O456   1.265       .  A
C450        C531   1.467       .  S
C454        C461   1.474       .  S
C457        C458   1.417       .  A
C457        C462   1.403       .  A
C457        H464   1.080       .  S
C458        C459   1.423       .  A
C459        C460   1.408       .  A
C459        N466   1.430       .  S
C460        C461   1.399       .  A
C460        H465   1.084       .  S
C461        C462   1.404       .  A
C462        N463   1.437       .  S
N463        H467   1.046       .  S
N466        H469   1.045       .  S
N466        H470   1.045       .  S
C471        C472   1.417       .  A
C471        C476   1.401       .  A
C471        H478   1.081       .  S
C472        C473   1.430       .  A
C473        C474   1.398       .  A
C473        N480   1.434       .  S
C474        C475   1.394       .  A
C474        H479   1.085       .  S
C475        C476   1.410       .  A
C476        N477   1.439       .  S
N477        H481   1.046       .  S
N477        H482   1.044       .  S
N480        H483   1.041       .  S
N480        H484   1.046       .  S
C485        C486   1.417       .  A
C485        C490   1.403       .  A
C485        H492   1.081       .  S
C486        C487   1.415       .  A
C487        C488   1.410       .  A
C487        N494   1.431       .  S
C488        C489   1.420       .  A
C488        H493   1.083       .  S
C489        C490   1.419       .  A
C490        N491   1.432       .  S
N491        H495   1.046       .  S
N491        H496   1.046       .  S
N494        H497   1.046       .  S
N494        H498   1.046       .  S
C499        C500   1.419       .  A
C499        C504   1.396       .  A
C499        H506   1.082       .  S
C500        C501   1.431       .  A
C501        C502   1.403       .  A
C501        N508   1.431       .  S
C502        C503   1.396       .  A
C502        H507   1.084       .  S
C503        C504   1.406       .  A
C504        N505   1.432       .  S
N505        H509   1.045       .  S
N505        H510   1.043       .  S
N508        H511   1.046       .  S
N508        H512   1.046       .  S
C513        C514   1.421       .  A
C513        C518   1.408       .  A
C513        H520   1.083       .  S
C514        C515   1.427       .  A
C515        C516   1.402       .  A
C515        N522   1.432       .  S
C516        C517   1.397       .  A
C516        H521   1.085       .  S
C517        C518   1.405       .  A
C518        N519   1.438       .  S
N519        H523   1.046       .  S
N519        H524   1.045       .  S
N522        H525   1.046       .  S
N522        H526   1.045       .  S
C527        C528   1.417       .  A
C527        C532   1.402       .  A
C527        H534   1.078       .  S
C528        C529   1.430       .  A
C529        C530   1.402       .  A
C529        N536   1.433       .  S
C530        C531   1.393       .  A
C530        H535   1.084       .  S
C531        C532   1.402       .  A
C532        N533   1.432       .  S
N533        H537   1.045       .  S
N533        H538   1.045       .  S
N536        H539   1.045       .  S
N536        H540   1.046       .  S
C541        C542   1.395       .  A
C541        C546   1.399       .  A
C541        H548   1.085       .  S
C542        C543   1.407       .  A
C543        C544   1.399       .  A
C543        N550   1.432       .  S
C544        C545   1.422       .  A
C544        H549   1.083       .  S
C545        C546   1.433       .  A
C546        N547   1.431       .  S
N547        H551   1.046       .  S
N547        H552   1.046       .  S
N550        H553   1.045       .  S
N550        H554   1.045       .  S
C555        C556   1.418       .  A
C555        C560   1.406       .  A
C555        H562   1.078       .  S
C556        C557   1.432       .  A
C557        C558   1.406       .  A
C557        N564   1.418       .  S
C558        C559   1.398       .  A
C558        H563   1.078       .  S
C559        C560   1.427       .  A
C560        N561   1.434       .  S
N561        H565   1.046       .  S
N561        H566   1.045       .  S
N564        H567   1.046       .  S
N564        H568   1.046       .  S
C569        C570   1.424       .  A
C569        C574   1.389       .  A
C569        H576   1.084       .  S
C570        C571   1.427       .  A
C571        C572   1.402       .  A
C571        N578   1.430       .  S
C572        C573   1.400       .  A
C572        H577   1.084       .  S
C573        C574   1.404       .  A
C574        N575   1.433       .  S
N575        H579   1.045       .  S
N575        H580   1.044       .  S
N578        H581   1.046       .  S
N578        H582   1.046       .  S
C583        C584   1.390       .  A
C583        C588   1.399       .  A
C583        H590   1.085       .  S
C584        C585   1.401       .  A
C585        C586   1.413       .  A
C585        N592   1.438       .  S
C586        C587   1.423       .  A
C586        H591   1.061       .  S
C587        C588   1.448       .  A
C588        N589   1.437       .  S
N589        H593   1.046       .  S
N589        H594   1.044       .  S
N592        H595   1.046       .  S
N592        H596   1.046       .  S
C597        C598   1.425       .  A
C597        C602   1.401       .  A
C597        H604   1.073       .  S
C598        C599   1.433       .  A
C599        C600   1.413       .  A
C599        N606   1.437       .  S
C600        C601   1.419       .  A
C600        H605   1.083       .  S
C601        C602   1.419       .  A
C602        N603   1.432       .  S
N603        H607   1.046       .  S
N603        H608   1.046       .  S
N606        H609   1.036       .  S
N606        H610   1.046       .  S
C611        C612   1.414       .  A
C611        C616   1.400       .  A
C611        H618   1.077       .  S
C612        C613   1.432       .  A
C613        C614   1.402       .  A
C613        N620   1.431       .  S
C614        C615   1.391       .  A
C614        H619   1.084       .  S
C615        C616   1.398       .  A
C616        N617   1.430       .  S
N617        H621   1.046       .  S
N617        H622   1.045       .  S
N620        H623   1.046       .  S
N620        H624   1.044       .  S
C625        C626   1.420       .  A
C625        C630   1.400       .  A
C625        H632   1.080       .  S
C626        C627   1.427       .  A
C627        C628   1.405       .  A
C627        N634   1.427       .  S
C628        C629   1.394       .  A
C628        H633   1.084       .  S
C629        C630   1.408       .  A
C630        N631   1.431       .  S
N631        H635   1.044       .  S
N631        H636   1.045       .  S
N634        H637   1.042       .  S
N634        H638   1.046       .  S
C639        C640   1.416       .  A
C639        C644   1.395   1_655  A
C639        H646   1.075       .  S
C640        C641   1.434       .  A
C641        C642   1.413   1_655  A
C641        N648   1.433       .  S
C642        C643   1.418       .  A
C642        H647   1.084       .  S
C643        C644   1.427       .  A
C644        N645   1.433       .  S
N645        H649   1.046       .  S
N645        H650   1.046       .  S
N648        H651   1.040       .  S
N648        H652   1.041       .  S
C653        C654   1.409       .  A
C653        C658   1.410       .  A
C653        H660   1.080       .  S
C654        C655   1.441       .  A
C655        C656   1.403       .  A
C655        N662   1.436       .  S
C656        C657   1.406       .  A
C656        H661   1.078       .  S
C657        C658   1.427       .  A
C658        N659   1.430       .  S
N659        H663   1.045       .  S
N659        H664   1.046       .  S
N662        H665   1.040       .  S
N662        H666   1.042       .  S
C667        C668   1.422       .  A
C667        C672   1.407       .  A
C667        H674   1.079       .  S
C668        C669   1.425       .  A
C669        C670   1.404       .  A
C669        N676   1.429       .  S
C670        C671   1.398       .  A
C670        H675   1.084       .  S
C671        C672   1.404       .  A
C672        N673   1.438       .  S
N673        H677   1.045       .  S
N673        H678   1.045       .  S
N676        H679   1.046       .  S
N676        H680   1.045       .  S
C681        C682   1.419       .  A
C681        C686   1.407       .  A
C681        H688   1.084       .  S
C682        C683   1.428       .  A
C683        C684   1.402       .  A
C683        N690   1.430       .  S
C684        C685   1.395       .  A
C684        H689   1.085       .  S
C685        C686   1.412       .  A
C686        N687   1.438       .  S
N687        H691   1.046       .  S
N687        H692   1.044       .  S
N690        H693   1.043       .  S
N690        H694   1.046       .  S
C695        C696   1.416       .  A
C695        C700   1.416       .  A
C695        H702   1.083       .  S
C696        C697   1.426       .  A
C697        C698   1.393       .  A
C697        N704   1.434       .  S
C698        C699   1.418       .  A
C698        H703   1.074       .  S
C699        C700   1.437       .  A
C700        N701   1.438       .  S
N701        H705   1.046       .  S
N701        H706   1.036       .  S
N704        H707   1.046       .  S
N704        H708   1.046       .  S
C709        C710   1.392       .  A
C709        C714   1.393       .  A
C709        H716   1.072       .  S
C710        C711   1.413       .  A
C711        C712   1.410       .  A
C711        N718   1.438       .  S
C712        C713   1.422       .  A
C712        H717   1.084       .  S
C713        C714   1.425       .  A
C714        N715   1.434       .  S
N715        H719   1.046       .  S
N715        H720   1.046       .  S
N718        H721   1.044       .  S
N718        H722   1.046       .  S
C723        C724   1.419       .  A
C723        C728   1.405       .  A
C723        H730   1.079       .  S
C724        C725   1.425       .  A
C725        C726   1.406       .  A
C725        N732   1.432       .  S
C726        C727   1.401       .  A
C726        H731   1.084       .  S
C727        C728   1.405       .  A
C728        N729   1.438       .  S
N729        H733   1.046       .  S
N729        H734   1.045       .  S
N732        H735   1.046       .  S
N732        H736   1.046       .  S
C737        C738   1.427       .  A
C737        C742   1.423   1_455  A
C737        H744   1.083       .  S
C738        C739   1.426       .  A
C739        C740   1.388   1_455  A
C739        N746   1.429       .  S
C740        C741   1.414       .  A
C740        H745   1.079       .  S
C741        C742   1.434       .  A
C742        N743   1.441       .  S
N743        H747   1.045       .  S
N743        H748   1.042       .  S
N746        H749   1.046       .  S
N746        H750   1.046       .  S
C751        C752   1.424       .  A
C751        C756   1.408       .  A
C751        H758   1.083       .  S
C752        C753   1.416       .  A
C753        C754   1.404       .  A
C753        N760   1.429       .  S
C754        C755   1.419       .  A
C754        H759   1.076       .  S
C755        C756   1.416       .  A
C756        N757   1.430       .  S
N757        H761   1.046       .  S
N757        H762   1.046       .  S
N760        H763   1.046       .  S
N760        H764   1.046       .  S
C765        C766   1.398       .  A
C765        C770   1.408       .  A
C765        H772   1.084       .  S
C766        C767   1.404       .  A
C767        C768   1.392       .  A
C767        N774   1.429       .  S
C768        C769   1.416       .  A
C768        H773   1.078       .  S
C769        C770   1.440       .  A
C770        N771   1.435       .  S
N771        H775   1.043       .  S
N771        H776   1.043       .  S
C779        C780   1.416       .  A
C779        C784   1.394       .  A
C779        H786   1.080       .  S
C780        C781   1.430       .  A
C781        C782   1.410       .  A
C781        N788   1.433       .  S
C782        C783   1.400       .  A
C782        H787   1.084       .  S
C783        C784   1.409       .  A
C784        N785   1.432       .  S
N785        H789   1.044       .  S
N785        H790   1.045       .  S
N788        H791   1.046       .  S
N788        H792   1.046       .  S
