geometry optimzed in LAMMPS
_audit_creation_date              2020-11-30 
_audit_creation_method            'lammps2cif' 
_symmetry_space_group_name_H-M    'P1' 
_symmetry_Int_Tables_number       1 
_symmetry_cell_setting            triclinic 
loop_ 
_symmetry_equiv_pos_as_xyz 
  x,y,z 
_cell_length_a                    33.47734565 
_cell_length_b                    42.22503608612901 
_cell_length_c                    33.47845747306522 
_cell_angle_alpha                 89.8994891190654 
_cell_angle_beta                  89.99508393936652 
_cell_angle_gamma                 90.0774483146098 
loop_ 
_atom_site_label 
_atom_site_type_symbol 
_atom_site_fract_x 
_atom_site_fract_y 
_atom_site_fract_z 
_atom_site_charge 
C1          C  0.07753253  0.42847647  0.08715226     0.42000
N2          N  0.06587377  0.46809207  0.04905188     0.00900
C3          C  0.39731522  0.06286303  0.04567446    -0.06900
H4          H  0.37118669  0.44002912  0.02411479     0.06400
C5          C  0.45184414  0.44668962  0.39853496    -0.07300
Co6        Co  0.49233302  0.50323779  0.07328051     0.74200
N7          N  0.42179342  0.46957320  0.03901307    -0.26500
Co8        Co  0.42428789  0.00456023  0.49514486     0.74100
C9          C  0.41462843  0.43176195  0.41110911     0.42100
N10         N  0.04605315  0.46924612  0.43052552     0.00500
N11         N  0.42753766  0.47035070  0.45039282     0.00700
N12         N  0.44251010  0.06139154  0.09599901    -0.47300
H13         H  0.02164694  0.43818087  0.12526557     0.06400
N14         N  0.44750983  0.46912722  0.06890522     0.00900
N15         N  0.42871786  0.03945398  0.45125943     0.00700
C16         C  0.41627198  0.07830155  0.41205347     0.42300
N17         N  0.07181207  0.46873630  0.46038319    -0.25900
C18         C  0.04323510  0.06065034  0.10224956    -0.06800
N19         N  0.09161092  0.44485160  0.05551863    -0.47000
N20         N  0.40262781  0.06235342  0.44424636    -0.47300
C21         C  0.08025584  0.07569620  0.08939810     0.42100
N22         N  0.44878394  0.03845842  0.06975167     0.00900
N23         N  0.07287349  0.03789860  0.46137104    -0.25900
N24         N  0.03607649  0.46815667  0.07488893    -0.26400
N25         N  0.04726948  0.03840496  0.43140642     0.00600
H26         H  0.12370814  0.06703182  0.47634782     0.06500
H27         H  0.47236890  0.06851485  0.37422195     0.06500
N28         N  0.42278117  0.03877378  0.04008435    -0.26500
N29         N  0.45739817  0.47031932  0.42462579    -0.25900
N30         N  0.06709423  0.03731583  0.04992664     0.00900
C31         C  0.40885284  0.42976269  0.08013862     0.42300
C32         C  0.09710803  0.44451294  0.45490466    -0.07400
N33         N  0.45847525  0.03927338  0.42536966    -0.26100
H34         H  0.47098634  0.44112747  0.37348731     0.06500
N35         N  0.44060563  0.44579604  0.09449119    -0.47300
H36         H  0.12200568  0.43845083  0.47401978     0.06500
C37         C  0.08690752  0.07714348  0.41963015     0.42200
C38         C  0.04086716  0.44386576  0.10028417    -0.06900
Co39       Co  0.07030151  0.50300896  0.00525896     0.73800
N40         N  0.05250544  0.44648038  0.40410905    -0.47000
C41         C  0.41074624  0.07786452  0.08250392     0.42400
N42         N  0.09355588  0.05999835  0.05697460    -0.47000
Co43       Co  0.00240238  0.00433535  0.42710156     0.73900
C44         C  0.45325825  0.06309189  0.39937915    -0.07400
C45         C  0.39606467  0.44546950  0.04354748    -0.06900
N46         N  0.03743718  0.03719623  0.07592998    -0.26500
N47         N  0.40104890  0.44772171  0.44322971    -0.47200
H48         H  0.37226334  0.06879952  0.02669973     0.06400
C49         C  0.09895173  0.06169839  0.45671072    -0.07300
Cl50       Cl  0.99732760  0.00379817  0.00019334    -0.50300
C51         C  0.08405360  0.42979402  0.41772895     0.42200
H52         H  0.02427155  0.06612833  0.12745961     0.06400
N53         N  0.05473868  0.06142941  0.40553664    -0.47000
C54         C  0.32815472  0.32744050  0.16060862     0.42000
N55         N  0.31619820  0.28879783  0.20012831     0.00900
C56         C  0.14750151  0.19395342  0.20569353    -0.06900
H57         H  0.11980202  0.31556564  0.22230389     0.06400
C58         C  0.20157761  0.31308004  0.34933454    -0.07300
Co59       Co  0.24267334  0.25311063  0.17657878     0.74200
N60         N  0.17172050  0.28706185  0.20924952    -0.26500
Co61       Co  0.17440912  0.25319030  0.25436314     0.74100
C62         C  0.16459142  0.32786773  0.33606794     0.42100
N63         N  0.29589329  0.28998323  0.31834444     0.00500
N64         N  0.17753846  0.28853654  0.29794138     0.00700
N65         N  0.19219204  0.19505482  0.15487985    -0.47300
H66         H  0.27272408  0.31664776  0.12229569     0.06400
N67         N  0.19778869  0.28732520  0.17963881     0.00900
N68         N  0.17892477  0.21910191  0.29917877     0.00700
C69         C  0.16713629  0.18025253  0.33870937     0.42300
N70         N  0.32198760  0.28973113  0.28877155    -0.25900
C71         C  0.29317398  0.19462726  0.15038670    -0.06800
N72         N  0.34191031  0.31201040  0.19307872    -0.47000
N73         N  0.15354624  0.19564595  0.30607207    -0.47300
C74         C  0.33031558  0.18000683  0.16362582     0.42100
N75         N  0.19884747  0.21813165  0.18081773     0.00900
N76         N  0.32295829  0.22084813  0.29018031    -0.25900
N77         N  0.28664467  0.28802250  0.17401780    -0.26400
N78         N  0.29686756  0.22073514  0.31974190     0.00600
H79         H  0.37448689  0.19199136  0.27717514     0.06500
H80         H  0.22219091  0.19184636  0.37734897     0.06500
N81         N  0.17302027  0.21813210  0.21062636    -0.26500
N82         N  0.20722152  0.28902127  0.32390822    -0.26100
N83         N  0.31740019  0.21956143  0.20136946     0.00900
C84         C  0.15777238  0.32532880  0.16633873     0.42300
C85         C  0.34788592  0.31360327  0.29397247    -0.07400
N86         N  0.20831082  0.22007418  0.32540165    -0.26100
H87         H  0.22054505  0.31904735  0.37437466     0.06500
N88         N  0.19047180  0.30991595  0.15310833    -0.47300
H89         H  0.37319901  0.31898469  0.27505202     0.06500
C90         C  0.33612524  0.18209633  0.33296282     0.42200
C91         C  0.29173614  0.31159787  0.14763179    -0.06900
Co92       Co  0.32052543  0.25475075  0.24500504     0.73800
N93         N  0.30257028  0.31307667  0.34424750    -0.47000
C94         C  0.16047669  0.17872272  0.16889173     0.42400
N95         N  0.34388334  0.19679459  0.19510208    -0.47000
Co96       Co  0.25213235  0.25498178  0.32273710     0.73900
C97         C  0.20329016  0.19653999  0.35182186    -0.07400
C98         C  0.14511857  0.31028452  0.20339028    -0.06900
N99         N  0.28762167  0.21893502  0.17550314    -0.26500
N100        N  0.15112237  0.31135879  0.30429139    -0.47200
H101        H  0.12244314  0.18831840  0.22483674     0.06400
C102        C  0.34916617  0.19735272  0.29604865    -0.07300
Cl103      Cl  0.24743413  0.25403737  0.24965070    -0.50300
C104        C  0.33475422  0.32900650  0.33059725     0.42200
H105        H  0.27411665  0.18844498  0.12549921     0.06400
N106        N  0.30369026  0.19793046  0.34609600    -0.47000
C107        C  0.13948893  0.12201634  0.16603694    -0.02300
C108        C  0.14085261  0.15219085  0.14804523     0.07400
C109        C  0.12292738  0.15706467  0.11040857    -0.02400
C110        C  0.10344795  0.13185011  0.09097015    -0.02400
C111        C  0.10165750  0.10181180  0.10922122     0.07600
C112        C  0.11996539  0.09683566  0.14660659    -0.02600
Br113      Br  0.11968500  0.05517965  0.17042694    -0.01100
Br114      Br  0.16565737  0.11491212  0.21665314    -0.01200
Br115      Br  0.07790167  0.13863579  0.03997149    -0.01200
Br116      Br  0.12312468  0.19867847  0.08645356    -0.01100
C117        C  0.16802605  0.12622614  0.36983409    -0.02300
C118        C  0.14648501  0.15357653  0.35868381     0.07400
C119        C  0.10517064  0.15544804  0.36698805    -0.02400
C120        C  0.08565817  0.13027453  0.38657000    -0.02400
C121        C  0.10739219  0.10328709  0.39852005     0.07600
C122        C  0.14859306  0.10124470  0.38987730    -0.02600
Br123      Br  0.17830156  0.06340723  0.40300678    -0.01100
Br124      Br  0.22367556  0.12172558  0.35544286    -0.01200
Br125      Br  0.02933811  0.13357214  0.39861816    -0.01200
Br126      Br  0.07531289  0.19320211  0.35383484    -0.01100
C127        C  0.07989483  0.37196508  0.10913002    -0.02300
C128        C  0.09840615  0.40189964  0.10664041     0.07400
C129        C  0.13676596  0.40647265  0.12310953    -0.02400
C130        C  0.15636094  0.38124157  0.14237356    -0.02400
C131        C  0.13771360  0.35141742  0.14512446     0.07600
C132        C  0.09959995  0.34671419  0.12824216    -0.02600
Br133      Br  0.07511029  0.30531428  0.12980178    -0.01100
Br134      Br  0.02821845  0.36519667  0.08494620    -0.01200
Br135      Br  0.20801425  0.38782312  0.16664451    -0.01200
Br136      Br  0.16164129  0.44772651  0.12125389    -0.01100
C137        C  0.35409887  0.09823611  0.12363913    -0.02300
C138        C  0.39094931  0.10372177  0.10447066     0.07400
C139        C  0.40869518  0.13396202  0.10610168    -0.02400
C140        C  0.38912775  0.15889834  0.12600592    -0.02400
C141        C  0.35177293  0.15359695  0.14435956     0.07600
C142        C  0.33447620  0.12315648  0.14345764    -0.02600
Br143      Br  0.28459743  0.11532551  0.17071034    -0.01100
Br144      Br  0.33131034  0.05622385  0.12405738    -0.01200
Br145      Br  0.41255768  0.20070069  0.12639063    -0.01200
Br146      Br  0.45919174  0.14140420  0.07986647    -0.01100
C147        C  0.39336954  0.35058452  0.36793242    -0.02300
C148        C  0.35477725  0.35500775  0.35204551     0.07400
C149        C  0.33532962  0.38432956  0.35659695    -0.02400
C150        C  0.35478983  0.40946083  0.37621981    -0.02400
C151        C  0.39369668  0.40522407  0.39152993     0.07600
C152        C  0.41284054  0.37567242  0.38758531    -0.02600
Br153      Br  0.46505048  0.36904023  0.41070210    -0.01100
Br154      Br  0.41881824  0.30966869  0.36458350    -0.01200
Br155      Br  0.32890315  0.45016761  0.38007681    -0.01200
Br156      Br  0.28258880  0.39036150  0.33449341    -0.01100
C157        C  0.38512401  0.13204909  0.41367165    -0.02300
C158        C  0.39480767  0.10446277  0.39210920     0.07400
C159        C  0.38354297  0.10181584  0.35164529    -0.02400
C160        C  0.36379051  0.12703221  0.33249264    -0.02400
C161        C  0.35517683  0.15507288  0.35369596     0.07600
C162        C  0.36537958  0.15731270  0.39454424    -0.02600
Br163      Br  0.35428575  0.19551732  0.42416007    -0.01100
Br164      Br  0.40052064  0.13585777  0.46909671    -0.01200
Br165      Br  0.34630049  0.12209468  0.27782224    -0.01200
Br166      Br  0.39270667  0.06287081  0.32289627    -0.01100
C167        C  0.13898255  0.38341609  0.33769803    -0.02300
C168        C  0.14259257  0.35356635  0.35617375     0.07400
C169        C  0.12597065  0.34848317  0.39434388    -0.02400
C170        C  0.10637238  0.37334539  0.41430248    -0.02400
C171        C  0.10345335  0.40343334  0.39620812     0.07600
C172        C  0.11964473  0.40838445  0.35776167    -0.02600
Br173      Br  0.11757311  0.44986758  0.33351599    -0.01100
Br174      Br  0.16199962  0.39037331  0.28552979    -0.01200
Br175      Br  0.08210209  0.36576067  0.46577394    -0.01200
Br176      Br  0.12868985  0.30704326  0.41864893    -0.01100
C177        C  0.36831072  0.34802916  0.10341565    -0.02300
C178        C  0.34929324  0.35344616  0.14031196     0.07400
C179        C  0.35052422  0.38370577  0.15784859    -0.02400
C180        C  0.37013101  0.40874006  0.13812717    -0.02400
C181        C  0.38869728  0.40345846  0.10093080     0.07600
C182        C  0.38782724  0.37307221  0.08360568    -0.02600
Br183      Br  0.41459217  0.36548593  0.03345112    -0.01100
Br184      Br  0.36931149  0.30591112  0.08108326    -0.01200
Br185      Br  0.36986376  0.45062802  0.16114923    -0.01200
Br186      Br  0.32441766  0.39095657  0.20842489    -0.01100
C187        C  0.07753245  0.42847646  0.58715222     0.42000
N188        N  0.06587381  0.46809212  0.54905196     0.00900
C189        C  0.39731510  0.06286306  0.54567442    -0.06900
H190        H  0.37118667  0.44002902  0.52411448     0.06400
C191        C  0.45184428  0.44668956  0.89853502    -0.07300
Co192      Co  0.49233304  0.50323784  0.57328064     0.74200
N193        N  0.42179341  0.46957327  0.53901308    -0.26500
Co194      Co  0.42428799  0.00456016  0.99514492     0.74100
C195        C  0.41462842  0.43176199  0.91110907     0.42100
N196        N  0.04605315  0.46924617  0.93052552     0.00500
N197        N  0.42753760  0.47035079  0.95039277     0.00700
N198        N  0.44251012  0.06139160  0.59599888    -0.47300
H199        H  0.02164706  0.43818088  0.62526499     0.06400
N200        N  0.44750978  0.46912733  0.56890530     0.00900
N201        N  0.42871791  0.03945402  0.95125946     0.00700
C202        C  0.41627203  0.07830153  0.91205336     0.42300
N203        N  0.07181208  0.46873639  0.96038316    -0.25900
C204        C  0.04323503  0.06065041  0.60224965    -0.06800
N205        N  0.09161094  0.44485164  0.55551870    -0.47000
N206        N  0.40262788  0.06235346  0.94424632    -0.47300
C207        C  0.08025582  0.07569622  0.58939806     0.42100
N208        N  0.44878389  0.03845849  0.56975156     0.00900
N209        N  0.07287345  0.03789858  0.96137104    -0.25900
N210        N  0.03607648  0.46815670  0.57488894    -0.26400
N211        N  0.04726936  0.03840500  0.93140650     0.00600
H212        H  0.12370802  0.06703155  0.97634758     0.06500
H213        H  0.47236877  0.06851474  0.87422208     0.06500
N214        N  0.42278109  0.03877385  0.54008424    -0.26500
N215        N  0.45739820  0.47031935  0.92462584    -0.25900
N216        N  0.06709428  0.03731578  0.54992672     0.00900
C217        C  0.40885287  0.42976270  0.58013857     0.42300
C218        C  0.09710810  0.44451301  0.95490471    -0.07400
N219        N  0.45847527  0.03927341  0.92536968    -0.26100
H220        H  0.47098628  0.44112738  0.87348784     0.06500
N221        N  0.44060563  0.44579608  0.59449117    -0.47300
H222        H  0.12200538  0.43845101  0.97401964     0.06500
C223        C  0.08690757  0.07714342  0.91963012     0.42200
C224        C  0.04086697  0.44386567  0.60028412    -0.06900
Co225      Co  0.07030158  0.50300890  0.50525897     0.73800
N226        N  0.05250553  0.44648045  0.90410902    -0.47000
C227        C  0.41074618  0.07786450  0.58250389     0.42400
N228        N  0.09355584  0.05999838  0.55697456    -0.47000
Co229      Co  0.00240225  0.00433539  0.92710164     0.73900
C230        C  0.45325831  0.06309188  0.89937902    -0.07400
C231        C  0.39606473  0.44546953  0.54354745    -0.06900
N232        N  0.03743724  0.03719622  0.57593005    -0.26500
N233        N  0.40104886  0.44772178  0.94322963    -0.47200
H234        H  0.37226318  0.06879955  0.52669970     0.06400
C235        C  0.09895186  0.06169827  0.95671070    -0.07300
Cl236      Cl  0.99732772  0.00379822  0.50019342    -0.50300
C237        C  0.08405370  0.42979409  0.91772893     0.42200
H238        H  0.02427187  0.06612833  0.62745910     0.06400
N239        N  0.05473859  0.06142944  0.90553672    -0.47000
C240        C  0.32815475  0.32744056  0.66060854     0.42000
N241        N  0.31619829  0.28879790  0.70012823     0.00900
C242        C  0.14750160  0.19395343  0.70569364    -0.06900
H243        H  0.11980172  0.31556576  0.72230415     0.06400
C244        C  0.20157774  0.31308009  0.84933442    -0.07300
Co245      Co  0.24267342  0.25311069  0.67657873     0.74200
N246        N  0.17172061  0.28706190  0.70924949    -0.26500
Co247      Co  0.17440920  0.25319035  0.75436311     0.74100
C248        C  0.16459150  0.32786776  0.83606792     0.42100
N249        N  0.29589325  0.28998324  0.81834440     0.00500
N250        N  0.17753846  0.28853655  0.79794136     0.00700
N251        N  0.19219206  0.19505476  0.65487987    -0.47300
H252        H  0.27272404  0.31664787  0.62229576     0.06400
N253        N  0.19778878  0.28732523  0.67963874     0.00900
N254        N  0.17892484  0.21910196  0.79917880     0.00700
C255        C  0.16713637  0.18025259  0.83870947     0.42300
N256        N  0.32198767  0.28973109  0.78877159    -0.25900
C257        C  0.29317407  0.19462731  0.65038676    -0.06800
N258        N  0.34191040  0.31201047  0.69307861    -0.47000
N259        N  0.15354632  0.19564602  0.80607217    -0.47300
C260        C  0.33031561  0.18000684  0.66362578     0.42100
N261        N  0.19884754  0.21813164  0.68081768     0.00900
N262        N  0.32295832  0.22084820  0.79018041    -0.25900
N263        N  0.28664473  0.28802258  0.67401774    -0.26400
N264        N  0.29686761  0.22073520  0.81974205     0.00600
H265        H  0.37448711  0.19199123  0.77717477     0.06500
H266        H  0.22219121  0.19184640  0.87734922     0.06500
N267        N  0.17302040  0.21813211  0.71062635    -0.26500
N268        N  0.20722156  0.28902128  0.82390815    -0.26100
N269        N  0.31740028  0.21956151  0.70136941     0.00900
C270        C  0.15777250  0.32532886  0.66633871     0.42300
C271        C  0.34788608  0.31360317  0.79397259    -0.07400
N272        N  0.20831088  0.22007421  0.82540169    -0.26100
H273        H  0.22054524  0.31904739  0.87437459     0.06500
N274        N  0.19047185  0.30991594  0.65310824    -0.47300
H275        H  0.37319917  0.31898458  0.77505223     0.06500
C276        C  0.33612516  0.18209625  0.83296279     0.42200
C277        C  0.29173612  0.31159797  0.64763175    -0.06900
Co278      Co  0.32052550  0.25475081  0.74500503     0.73800
N279        N  0.30257017  0.31307674  0.84424741    -0.47000
C280        C  0.16047666  0.17872272  0.66889176     0.42400
N281        N  0.34388337  0.19679463  0.69510205    -0.47000
Co282      Co  0.25213229  0.25498176  0.82273709     0.73900
C283        C  0.20329023  0.19654005  0.85182190    -0.07400
C284        C  0.14511876  0.31028456  0.70339021    -0.06900
N285        N  0.28762174  0.21893510  0.67550308    -0.26500
N286        N  0.15112233  0.31135875  0.80429148    -0.47200
H287        H  0.12244343  0.18831853  0.72483683     0.06400
C288        C  0.34916603  0.19735273  0.79604871    -0.07300
Cl289      Cl  0.24743408  0.25403744  0.74965076    -0.50300
C290        C  0.33475425  0.32900646  0.83059728     0.42200
H291        H  0.27411633  0.18844488  0.62549883     0.06400
N292        N  0.30369033  0.19793051  0.84609614    -0.47000
C293        C  0.13948898  0.12201629  0.66603685    -0.02300
C294        C  0.14085255  0.15219083  0.64804525     0.07400
C295        C  0.12292745  0.15706458  0.61040850    -0.02400
C296        C  0.10344798  0.13185004  0.59097006    -0.02400
C297        C  0.10165758  0.10181173  0.60922116     0.07600
C298        C  0.11996550  0.09683560  0.64660653    -0.02600
Br299      Br  0.11968510  0.05517971  0.67042714    -0.01100
Br300      Br  0.16565720  0.11491198  0.71665307    -0.01200
Br301      Br  0.07790150  0.13863585  0.53997144    -0.01200
Br302      Br  0.12312479  0.19867832  0.58645347    -0.01100
C303        C  0.16802619  0.12622620  0.86983424    -0.02300
C304        C  0.14648511  0.15357654  0.85868380     0.07400
C305        C  0.10517074  0.15544803  0.86698800    -0.02400
C306        C  0.08565827  0.13027450  0.88656995    -0.02400
C307        C  0.10739225  0.10328706  0.89852003     0.07600
C308        C  0.14859314  0.10124477  0.88987745    -0.02600
Br309      Br  0.17830142  0.06340728  0.90300670    -0.01100
Br310      Br  0.22367567  0.12172565  0.85544278    -0.01200
Br311      Br  0.02933822  0.13357200  0.89861806    -0.01200
Br312      Br  0.07531301  0.19320218  0.85383476    -0.01100
C313        C  0.07989485  0.37196507  0.60912998    -0.02300
C314        C  0.09840606  0.40189967  0.60664046     0.07400
C315        C  0.13676592  0.40647263  0.62310946    -0.02400
C316        C  0.15636091  0.38124157  0.64237348    -0.02400
C317        C  0.13771366  0.35141742  0.64512440     0.07600
C318        C  0.09960003  0.34671419  0.62824208    -0.02600
Br319      Br  0.07511041  0.30531434  0.62980170    -0.01100
Br320      Br  0.02821855  0.36519652  0.58494611    -0.01200
Br321      Br  0.20801409  0.38782320  0.66664444    -0.01200
Br322      Br  0.16164139  0.44772637  0.62125379    -0.01100
C323        C  0.35409893  0.09823602  0.62363912    -0.02300
C324        C  0.39094934  0.10372174  0.60447062     0.07400
C325        C  0.40869523  0.13396200  0.60610160    -0.02400
C326        C  0.38912776  0.15889830  0.62600584    -0.02400
C327        C  0.35177297  0.15359688  0.64435955     0.07600
C328        C  0.33447628  0.12315638  0.64345770    -0.02600
Br329      Br  0.28459756  0.11532535  0.67071054    -0.01100
Br330      Br  0.33131044  0.05622370  0.62405730    -0.01200
Br331      Br  0.41255750  0.20070076  0.62639053    -0.01200
Br332      Br  0.45919184  0.14140427  0.57986639    -0.01100
C333        C  0.39336955  0.35058449  0.86793241    -0.02300
C334        C  0.35477729  0.35500776  0.85204546     0.07400
C335        C  0.33532967  0.38432958  0.85659687    -0.02400
C336        C  0.35478979  0.40946085  0.87621984    -0.02400
C337        C  0.39369668  0.40522409  0.89152992     0.07600
C338        C  0.41284058  0.37567242  0.88758530    -0.02600
Br339      Br  0.46505055  0.36904030  0.91070228    -0.01100
Br340      Br  0.41881806  0.30966855  0.86458372    -0.01200
Br341      Br  0.32890299  0.45016766  0.88007673    -0.01200
Br342      Br  0.28258892  0.39036157  0.83449332    -0.01100
C343        C  0.38512393  0.13204902  0.91367165    -0.02300
C344        C  0.39480774  0.10446274  0.89210911     0.07400
C345        C  0.38354312  0.10181582  0.85164517    -0.02400
C346        C  0.36379063  0.12703220  0.83249255    -0.02400
C347        C  0.35517684  0.15507284  0.85369593     0.07600
C348        C  0.36537958  0.15731267  0.89454423    -0.02600
Br349      Br  0.35428587  0.19551738  0.92415998    -0.01100
Br350      Br  0.40052076  0.13585784  0.96909662    -0.01200
Br351      Br  0.34630061  0.12209475  0.77782215    -0.01200
Br352      Br  0.39270677  0.06287068  0.82289619    -0.01100
C353        C  0.13898257  0.38341604  0.83769799    -0.02300
C354        C  0.14259262  0.35356633  0.85617374     0.07400
C355        C  0.12597077  0.34848316  0.89434391    -0.02400
C356        C  0.10637248  0.37334536  0.91430248    -0.02400
C357        C  0.10345341  0.40343333  0.89620814     0.07600
C358        C  0.11964480  0.40838439  0.85776171    -0.02600
Br359      Br  0.11757322  0.44986746  0.83351618    -0.01100
Br360      Br  0.16199972  0.39037338  0.78552974    -0.01200
Br361      Br  0.08210219  0.36576053  0.96577386    -0.01200
Br362      Br  0.12868997  0.30704332  0.91864913    -0.01100
C363        C  0.36831088  0.34802917  0.60341568    -0.02300
C364        C  0.34929326  0.35344620  0.64031192     0.07400
C365        C  0.35052415  0.38370583  0.65784850    -0.02400
C366        C  0.37013106  0.40874009  0.63812714    -0.02400
C367        C  0.38869730  0.40345849  0.60093076     0.07600
C368        C  0.38782734  0.37307222  0.58360568    -0.02600
Br369      Br  0.41459227  0.36548601  0.53345105    -0.01100
Br370      Br  0.36931160  0.30591119  0.58108318    -0.01200
Br371      Br  0.36986387  0.45062809  0.66114914    -0.01200
Br372      Br  0.32441776  0.39095665  0.70842482    -0.01100
C373        C  0.07753249  0.92847650  0.08715227     0.42000
N374        N  0.06587374  0.96809209  0.04905189     0.00900
C375        C  0.39731517  0.56286303  0.04567446    -0.06900
H376        H  0.37118660  0.94002911  0.02411471     0.06400
C377        C  0.45184412  0.94668966  0.39853497    -0.07300
Co378      Co  0.49233305  0.00323776  0.07328051     0.74200
N379        N  0.42179340  0.96957322  0.03901309    -0.26500
Co380      Co  0.42428805  0.50456014  0.49514484     0.74100
C381        C  0.41462842  0.93176196  0.41110911     0.42100
N382        N  0.04605316  0.96924612  0.43052555     0.00500
N383        N  0.42753758  0.97035077  0.45039281     0.00700
N384        N  0.44251006  0.56139153  0.09599901    -0.47300
H385        H  0.02164689  0.93818090  0.12526557     0.06400
N386        N  0.44750984  0.96912723  0.06890522     0.00900
N387        N  0.42871797  0.53945398  0.45125940     0.00700
C388        C  0.41627210  0.57830151  0.41205336     0.42300
N389        N  0.07181210  0.96873632  0.46038318    -0.25900
C390        C  0.04323510  0.56065034  0.10224952    -0.06800
N391        N  0.09161088  0.94485162  0.05551863    -0.47000
N392        N  0.40262796  0.56235344  0.44424632    -0.47300
C393        C  0.08025582  0.57569624  0.08939806     0.42100
N394        N  0.44878390  0.53845843  0.06975166     0.00900
N395        N  0.07287349  0.53789852  0.46137101    -0.25900
N396        N  0.03607646  0.96815669  0.07488894    -0.26400
N397        N  0.04726944  0.53840496  0.43140645     0.00600
H398        H  0.12370798  0.56703145  0.47634759     0.06500
H399        H  0.47236915  0.56851488  0.37422191     0.06500
N400        N  0.42278114  0.53877380  0.04008433    -0.26500
N401        N  0.45739814  0.97031935  0.42462581    -0.25900
N402        N  0.06709434  0.53731578  0.04992671     0.00900
C403        C  0.40885284  0.92976269  0.08013864     0.42300
C404        C  0.09710816  0.94451297  0.45490467    -0.07400
N405        N  0.45847537  0.53927340  0.42536966    -0.26100
H406        H  0.47098632  0.94112750  0.37348734     0.06500
N407        N  0.44060569  0.94579602  0.09449115    -0.47300
H408        H  0.12200536  0.93845102  0.47401938     0.06500
C409        C  0.08690770  0.57714334  0.41963009     0.42200
C410        C  0.04086711  0.94386578  0.10028418    -0.06900
Co411      Co  0.07030152  0.00300896  0.00525896     0.73800
N412        N  0.05250543  0.94648038  0.40410907    -0.47000
C413        C  0.41074617  0.57786448  0.08250396     0.42400
N414        N  0.09355593  0.55999836  0.05697461    -0.47000
Co415      Co  0.00240234  0.50433537  0.42710156     0.73900
C416        C  0.45325842  0.56309192  0.39937914    -0.07400
C417        C  0.39606466  0.94546953  0.04354752    -0.06900
N418        N  0.03743726  0.53719619  0.07593001    -0.26500
N419        N  0.40104886  0.94772174  0.44322970    -0.47200
H420        H  0.37226331  0.56879952  0.02669973     0.06400
C421        C  0.09895192  0.56169821  0.45671071    -0.07300
Cl422      Cl  0.99732760  0.50379820  0.00019334    -0.50300
C423        C  0.08405360  0.92979404  0.41772895     0.42200
H424        H  0.02427148  0.56612838  0.12745947     0.06400
N425        N  0.05473870  0.56142942  0.40553668    -0.47000
C426        C  0.32815475  0.82744048  0.16060860     0.42000
N427        N  0.31619816  0.78879787  0.20012832     0.00900
C428        C  0.14750150  0.69395345  0.20569352    -0.06900
H429        H  0.11980209  0.81556560  0.22230384     0.06400
C430        C  0.20157761  0.81308003  0.34933455    -0.07300
Co431      Co  0.24267334  0.75311066  0.17657878     0.74200
N432        N  0.17172055  0.78706189  0.20924954    -0.26500
Co433      Co  0.17440911  0.75319032  0.25436314     0.74100
C434        C  0.16459144  0.82786776  0.33606792     0.42100
N435        N  0.29589333  0.78998319  0.31834447     0.00500
N436        N  0.17753848  0.78853655  0.29794138     0.00700
N437        N  0.19219204  0.69505481  0.15487986    -0.47300
H438        H  0.27272414  0.81664782  0.12229572     0.06400
N439        N  0.19778869  0.78732522  0.17963880     0.00900
N440        N  0.17892480  0.71910191  0.29917873     0.00700
C441        C  0.16713625  0.68025257  0.33870938     0.42300
N442        N  0.32198760  0.78973115  0.28877154    -0.25900
C443        C  0.29317402  0.69462728  0.15038672    -0.06800
N444        N  0.34191031  0.81201042  0.19307873    -0.47000
N445        N  0.15354624  0.69564598  0.30607206    -0.47300
C446        C  0.33031561  0.68000681  0.16362583     0.42100
N447        N  0.19884749  0.71813163  0.18081775     0.00900
N448        N  0.32295834  0.72084816  0.29018033    -0.25900
N449        N  0.28664463  0.78802255  0.17401781    -0.26400
N450        N  0.29686756  0.72073512  0.31974188     0.00600
H451        H  0.37448697  0.69199133  0.27717508     0.06500
H452        H  0.22219082  0.69184637  0.37734898     0.06500
N453        N  0.17302027  0.71813211  0.21062635    -0.26500
N454        N  0.20722151  0.78902123  0.32390826    -0.26100
N455        N  0.31740029  0.71956146  0.20136942     0.00900
C456        C  0.15777239  0.82532883  0.16633873     0.42300
C457        C  0.34788592  0.81360329  0.29397244    -0.07400
N458        N  0.20831083  0.72007416  0.32540164    -0.26100
H459        H  0.22054503  0.81904735  0.37437471     0.06500
N460        N  0.19047178  0.80991596  0.15310831    -0.47300
H461        H  0.37319902  0.81898475  0.27505194     0.06500
C462        C  0.33612527  0.68209633  0.33296282     0.42200
C463        C  0.29173614  0.81159791  0.14763179    -0.06900
Co464      Co  0.32052542  0.75475078  0.24500505     0.73800
N465        N  0.30257029  0.81307666  0.34424750    -0.47000
C466        C  0.16047673  0.67872270  0.16889177     0.42400
N467        N  0.34388339  0.69679458  0.19510208    -0.47000
Co468      Co  0.25213234  0.75498170  0.32273711     0.73900
C469        C  0.20329012  0.69654000  0.35182189    -0.07400
C470        C  0.14511859  0.81028455  0.20339030    -0.06900
N471        N  0.28762175  0.71893508  0.17550311    -0.26500
N472        N  0.15112243  0.81135885  0.30429134    -0.47200
H473        H  0.12244307  0.68831844  0.22483673     0.06400
C474        C  0.34916619  0.69735274  0.29604868    -0.07300
Cl475      Cl  0.24743410  0.75403739  0.24965070    -0.50300
C476        C  0.33475425  0.82900648  0.33059725     0.42200
H477        H  0.27411662  0.68844498  0.12549930     0.06400
N478        N  0.30369026  0.69793045  0.34609599    -0.47000
C479        C  0.13948887  0.62201635  0.16603695    -0.02300
C480        C  0.14085261  0.65219086  0.14804524     0.07400
C481        C  0.12292751  0.65706467  0.11040851    -0.02400
C482        C  0.10344795  0.63185015  0.09097014    -0.02400
C483        C  0.10165744  0.60181184  0.10922123     0.07600
C484        C  0.11996534  0.59683569  0.14660659    -0.02600
Br485      Br  0.11968495  0.55517968  0.17042694    -0.01100
Br486      Br  0.16565732  0.61491215  0.21665314    -0.01200
Br487      Br  0.07790162  0.63863583  0.03997149    -0.01200
Br488      Br  0.12312493  0.69867850  0.08645356    -0.01100
C489        C  0.16802609  0.62622617  0.36983408    -0.02300
C490        C  0.14648501  0.65357655  0.35868379     0.07400
C491        C  0.10517065  0.65544803  0.36698807    -0.02400
C492        C  0.08565822  0.63027449  0.38657005    -0.02400
C493        C  0.10739230  0.60328703  0.39852005     0.07600
C494        C  0.14859315  0.60124472  0.38987731    -0.02600
Br495      Br  0.17830155  0.56340724  0.40300678    -0.01100
Br496      Br  0.22367553  0.62172562  0.35544285    -0.01200
Br497      Br  0.02933810  0.63357215  0.39861816    -0.01200
Br498      Br  0.07531285  0.69320214  0.35383484    -0.01100
C499        C  0.07989480  0.87196511  0.10913004    -0.02300
C500        C  0.09840611  0.90189967  0.10664042     0.07400
C501        C  0.13676592  0.90647269  0.12310953    -0.02400
C502        C  0.15636092  0.88124161  0.14237356    -0.02400
C503        C  0.13771362  0.85141745  0.14512443     0.07600
C504        C  0.09959998  0.84671423  0.12824216    -0.02600
Br505      Br  0.07511052  0.80531430  0.12980178    -0.01100
Br506      Br  0.02821840  0.86519669  0.08494620    -0.01200
Br507      Br  0.20801421  0.88782315  0.16664451    -0.01200
Br508      Br  0.16164124  0.94772654  0.12125389    -0.01100
C509        C  0.35409888  0.59823609  0.12363913    -0.02300
C510        C  0.39094930  0.60372175  0.10447066     0.07400
C511        C  0.40869521  0.63396198  0.10610171    -0.02400
C512        C  0.38912777  0.65889831  0.12600592    -0.02400
C513        C  0.35177297  0.65359690  0.14435960     0.07600
C514        C  0.33447621  0.62315645  0.14345764    -0.02600
Br515      Br  0.28459739  0.61532553  0.17071033    -0.01100
Br516      Br  0.33131028  0.55622387  0.12405738    -0.01200
Br517      Br  0.41255763  0.70070072  0.12639062    -0.01200
Br518      Br  0.45919171  0.64140423  0.07986647    -0.01100
C519        C  0.39336961  0.85058456  0.36793230    -0.02300
C520        C  0.35477726  0.85500776  0.35204551     0.07400
C521        C  0.33532960  0.88432955  0.35659697    -0.02400
C522        C  0.35478983  0.90946084  0.37621980    -0.02400
C523        C  0.39369670  0.90522408  0.39152989     0.07600
C524        C  0.41284061  0.87567243  0.38758528    -0.02600
Br525      Br  0.46505069  0.86904026  0.41070208    -0.01100
Br526      Br  0.41881820  0.80966871  0.36458350    -0.01200
Br527      Br  0.32890311  0.95016763  0.38007681    -0.01200
Br528      Br  0.28258876  0.89036152  0.33449342    -0.01100
C529        C  0.38512399  0.63204901  0.41367168    -0.02300
C530        C  0.39480781  0.60446275  0.39210912     0.07400
C531        C  0.38354298  0.60181578  0.35164524    -0.02400
C532        C  0.36379052  0.62703219  0.33249262    -0.02400
C533        C  0.35517692  0.65507289  0.35369596     0.07600
C534        C  0.36537953  0.65731264  0.39454430    -0.02600
Br535      Br  0.35428571  0.69551732  0.42416007    -0.01100
Br536      Br  0.40052089  0.63585779  0.46909669    -0.01200
Br537      Br  0.34630044  0.62209470  0.27782224    -0.01200
Br538      Br  0.39270661  0.56287063  0.32289628    -0.01100
C539        C  0.13898251  0.88341610  0.33769802    -0.02300
C540        C  0.14259253  0.85356636  0.35617372     0.07400
C541        C  0.12597064  0.84848316  0.39434383    -0.02400
C542        C  0.10637252  0.87334541  0.41430251    -0.02400
C543        C  0.10345335  0.90343335  0.39620812     0.07600
C544        C  0.11964469  0.90838446  0.35776166    -0.02600
Br545      Br  0.11757306  0.94986761  0.33351599    -0.01100
Br546      Br  0.16199957  0.89037334  0.28552980    -0.01200
Br547      Br  0.08210234  0.86576069  0.46577395    -0.01200
Br548      Br  0.12869009  0.80704328  0.41864894    -0.01100
C549        C  0.36831071  0.84802915  0.10341564    -0.02300
C550        C  0.34929323  0.85344614  0.14031196     0.07400
C551        C  0.35052417  0.88370576  0.15784859    -0.02400
C552        C  0.37013099  0.90874005  0.13812718    -0.02400
C553        C  0.38869727  0.90345845  0.10093081     0.07600
C554        C  0.38782722  0.87307220  0.08360569    -0.02600
Br555      Br  0.41459213  0.86548596  0.03345111    -0.01100
Br556      Br  0.36931173  0.80591114  0.08108327    -0.01200
Br557      Br  0.36986372  0.95062803  0.16114922    -0.01200
Br558      Br  0.32441761  0.89095660  0.20842489    -0.01100
C559        C  0.07753246  0.92847646  0.58715222     0.42000
N560        N  0.06587380  0.96809213  0.54905193     0.00900
C561        C  0.39731528  0.56286307  0.54567434    -0.06900
H562        H  0.37118677  0.94002915  0.52411475     0.06400
C563        C  0.45184424  0.94668958  0.89853501    -0.07300
Co564      Co  0.49233294  0.00323783  0.57328062     0.74200
N565        N  0.42179335  0.96957327  0.53901309    -0.26500
Co566      Co  0.42428796  0.50456017  0.99514491     0.74100
C567        C  0.41462838  0.93176203  0.91110907     0.42100
N568        N  0.04605316  0.96924615  0.93052552     0.00500
N569        N  0.42753762  0.97035079  0.95039280     0.00700
N570        N  0.44251016  0.56139157  0.59599893    -0.47300
H571        H  0.02164694  0.93818085  0.62526539     0.06400
N572        N  0.44750977  0.96912725  0.56890525     0.00900
N573        N  0.42871789  0.53945400  0.95125944     0.00700
C574        C  0.41627196  0.57830150  0.91205336     0.42300
N575        N  0.07181210  0.96873637  0.96038316    -0.25900
C576        C  0.04323501  0.56065046  0.60224962    -0.06800
N577        N  0.09161094  0.94485165  0.55551868    -0.47000
N578        N  0.40262780  0.56235338  0.94424628    -0.47300
C579        C  0.08025581  0.57569624  0.58939806     0.42100
N580        N  0.44878397  0.53845844  0.56975162     0.00900
N581        N  0.07287340  0.53789862  0.96137105    -0.25900
N582        N  0.03607649  0.96815670  0.57488895    -0.26400
N583        N  0.04726931  0.53840504  0.93140651     0.00600
H584        H  0.12370833  0.56703162  0.97634782     0.06500
H585        H  0.47236897  0.56851486  0.87422173     0.06500
N586        N  0.42278126  0.53877381  0.54008424    -0.26500
N587        N  0.45739817  0.97031935  0.92462582    -0.25900
N588        N  0.06709429  0.53731581  0.54992672     0.00900
C589        C  0.40885287  0.92976264  0.58013856     0.42300
C590        C  0.09710812  0.94451299  0.95490472    -0.07400
N591        N  0.45847530  0.53927343  0.92536968    -0.26100
H592        H  0.47098629  0.94112738  0.87348776     0.06500
N593        N  0.44060562  0.94579601  0.59449115    -0.47300
H594        H  0.12200539  0.93845099  0.97401964     0.06500
C595        C  0.08690752  0.57714344  0.91963013     0.42200
C596        C  0.04086707  0.94386572  0.60028411    -0.06900
Co597      Co  0.07030160  0.00300890  0.50525897     0.73800
N598        N  0.05250553  0.94648043  0.90410902    -0.47000
C599        C  0.41074629  0.57786453  0.58250386     0.42400
N600        N  0.09355589  0.55999837  0.55697460    -0.47000
Co601      Co  0.00240223  0.50433542  0.92710163     0.73900
C602        C  0.45325823  0.56309188  0.89937909    -0.07400
C603        C  0.39606465  0.94546953  0.54354745    -0.06900
N604        N  0.03743722  0.53719627  0.57593003    -0.26500
N605        N  0.40104886  0.94772181  0.94322965    -0.47200
H606        H  0.37226354  0.56879955  0.52669973     0.06400
C607        C  0.09895177  0.56169828  0.95671065    -0.07300
Cl608      Cl  0.99732768  0.50379824  0.50019342    -0.50300
C609        C  0.08405369  0.92979407  0.91772894     0.42200
H610        H  0.02427185  0.56612836  0.62745906     0.06400
N611        N  0.05473854  0.56142947  0.90553672    -0.47000
C612        C  0.32815472  0.82744050  0.66060856     0.42000
N613        N  0.31619823  0.78879784  0.70012822     0.00900
C614        C  0.14750155  0.69395346  0.70569364    -0.06900
H615        H  0.11980167  0.81556578  0.72230414     0.06400
C616        C  0.20157771  0.81308010  0.84933441    -0.07300
Co617      Co  0.24267337  0.75311068  0.67657873     0.74200
N618        N  0.17172057  0.78706193  0.70924949    -0.26500
Co619      Co  0.17440915  0.75319036  0.75436312     0.74100
C620        C  0.16459147  0.82786777  0.83606789     0.42100
N621        N  0.29589330  0.78998322  0.81834443     0.00500
N622        N  0.17753842  0.78853651  0.79794141     0.00700
N623        N  0.19219201  0.69505479  0.65487987    -0.47300
H624        H  0.27272418  0.81664779  0.62229608     0.06400
N625        N  0.19778874  0.78732526  0.67963875     0.00900
N626        N  0.17892481  0.71910199  0.79917881     0.00700
C627        C  0.16713631  0.68025262  0.83870948     0.42300
N628        N  0.32198769  0.78973108  0.78877159    -0.25900
C629        C  0.29317405  0.69462728  0.65038679    -0.06800
N630        N  0.34191037  0.81201038  0.69307858    -0.47000
N631        N  0.15354628  0.69564606  0.80607218    -0.47300
C632        C  0.33031563  0.68000685  0.66362577     0.42100
N633        N  0.19884748  0.71813167  0.68081768     0.00900
N634        N  0.32295834  0.72084818  0.79018040    -0.25900
N635        N  0.28664469  0.78802253  0.67401773    -0.26400
N636        N  0.29686761  0.72073515  0.81974200     0.00600
H637        H  0.37448683  0.69199141  0.77717517     0.06500
H638        H  0.22219117  0.69184641  0.87734921     0.06500
N639        N  0.17302035  0.71813214  0.71062634    -0.26500
N640        N  0.20722157  0.78902128  0.82390815    -0.26100
N641        N  0.31740027  0.71956150  0.70136941     0.00900
C642        C  0.15777246  0.82532888  0.66633873     0.42300
C643        C  0.34788603  0.81360314  0.79397260    -0.07400
N644        N  0.20831088  0.72007424  0.82540168    -0.26100
H645        H  0.22054521  0.81904745  0.87437453     0.06500
N646        N  0.19047180  0.80991597  0.65310824    -0.47300
H647        H  0.37319942  0.81898462  0.77505193     0.06500
C648        C  0.33612518  0.68209626  0.83296280     0.42200
C649        C  0.29173605  0.81159794  0.64763172    -0.06900
Co650      Co  0.32052547  0.75475080  0.74500503     0.73800
N651        N  0.30257024  0.81307672  0.84424744    -0.47000
C652        C  0.16047661  0.67872275  0.66889176     0.42400
N653        N  0.34388343  0.69679468  0.69510199    -0.47000
Co654      Co  0.25213237  0.75498176  0.82273709     0.73900
C655        C  0.20329019  0.69654008  0.85182191    -0.07400
C656        C  0.14511871  0.81028459  0.70339021    -0.06900
N657        N  0.28762169  0.71893505  0.67550313    -0.26500
N658        N  0.15112229  0.81135873  0.80429149    -0.47200
H659        H  0.12244339  0.68831855  0.72483683     0.06400
C660        C  0.34916618  0.69735275  0.79604871    -0.07300
Cl661      Cl  0.24743406  0.75403746  0.74965077    -0.50300
C662        C  0.33475426  0.82900648  0.83059724     0.42200
H663        H  0.27411633  0.68844486  0.62549878     0.06400
N664        N  0.30369032  0.69793047  0.84609611    -0.47000
C665        C  0.13948897  0.62201629  0.66603689    -0.02300
C666        C  0.14085251  0.65219085  0.64804526     0.07400
C667        C  0.12292740  0.65706460  0.61040851    -0.02400
C668        C  0.10344793  0.63185007  0.59097007    -0.02400
C669        C  0.10165754  0.60181175  0.60922118     0.07600
C670        C  0.11996546  0.59683558  0.64660657    -0.02600
Br671      Br  0.11968506  0.55517955  0.67042712    -0.01100
Br672      Br  0.16565743  0.61491201  0.71665304    -0.01200
Br673      Br  0.07790145  0.63863588  0.53997144    -0.01200
Br674      Br  0.12312474  0.69867835  0.58645347    -0.01100
C675        C  0.16802615  0.62622622  0.86983424    -0.02300
C676        C  0.14648506  0.65357654  0.85868378     0.07400
C677        C  0.10517067  0.65544801  0.86698794    -0.02400
C678        C  0.08565821  0.63027450  0.88656995    -0.02400
C679        C  0.10739221  0.60328707  0.89852004     0.07600
C680        C  0.14859310  0.60124479  0.88987745    -0.02600
Br681      Br  0.17830137  0.56340731  0.90300670    -0.01100
Br682      Br  0.22367562  0.62172568  0.85544278    -0.01200
Br683      Br  0.02933817  0.63357202  0.89861807    -0.01200
Br684      Br  0.07531296  0.69320220  0.85383476    -0.01100
C685        C  0.07989481  0.87196505  0.60912998    -0.02300
C686        C  0.09840605  0.90189965  0.60664045     0.07400
C687        C  0.13676592  0.90647261  0.62310945    -0.02400
C688        C  0.15636094  0.88124156  0.64237351    -0.02400
C689        C  0.13771364  0.85141742  0.64512441     0.07600
C690        C  0.09960001  0.84671417  0.62824206    -0.02600
Br691      Br  0.07511035  0.80531436  0.62980170    -0.01100
Br692      Br  0.02821850  0.86519654  0.58494611    -0.01200
Br693      Br  0.20801429  0.88782322  0.66664442    -0.01200
Br694      Br  0.16164134  0.94772638  0.62125379    -0.01100
C695        C  0.35409891  0.59823604  0.62363911    -0.02300
C696        C  0.39094934  0.60372176  0.60447061     0.07400
C697        C  0.40869519  0.63396203  0.60610159    -0.02400
C698        C  0.38912771  0.65889833  0.62600584    -0.02400
C699        C  0.35177294  0.65359691  0.64435955     0.07600
C700        C  0.33447625  0.62315640  0.64345769    -0.02600
Br701      Br  0.28459751  0.61532538  0.67071054    -0.01100
Br702      Br  0.33131040  0.55622373  0.62405729    -0.01200
Br703      Br  0.41255745  0.70070079  0.62639053    -0.01200
Br704      Br  0.45919179  0.64140431  0.57986639    -0.01100
C705        C  0.39336952  0.85058452  0.86793241    -0.02300
C706        C  0.35477727  0.85500779  0.85204544     0.07400
C707        C  0.33532964  0.88432958  0.85659687    -0.02400
C708        C  0.35478976  0.90946082  0.87621984    -0.02400
C709        C  0.39369664  0.90522410  0.89152993     0.07600
C710        C  0.41284054  0.87567245  0.88758530    -0.02600
Br711      Br  0.46505051  0.86904032  0.91070228    -0.01100
Br712      Br  0.41881802  0.80966858  0.86458372    -0.01200
Br713      Br  0.32890293  0.95016749  0.88007674    -0.01200
Br714      Br  0.28258887  0.89036160  0.83449332    -0.01100
C715        C  0.38512389  0.63204901  0.91367164    -0.02300
C716        C  0.39480767  0.60446273  0.89210912     0.07400
C717        C  0.38354302  0.60181580  0.85164519    -0.02400
C718        C  0.36379058  0.62703220  0.83249256    -0.02400
C719        C  0.35517683  0.65507284  0.85369593     0.07600
C720        C  0.36537955  0.65731268  0.89454423    -0.02600
Br721      Br  0.35428582  0.69551740  0.92415998    -0.01100
Br722      Br  0.40052070  0.63585765  0.96909662    -0.01200
Br723      Br  0.34630056  0.62209478  0.77782216    -0.01200
Br724      Br  0.39270672  0.56287070  0.82289619    -0.01100
C725        C  0.13898252  0.88341606  0.83769800    -0.02300
C726        C  0.14259258  0.85356632  0.85617374     0.07400
C727        C  0.12597073  0.84848309  0.89434392    -0.02400
C728        C  0.10637241  0.87334532  0.91430247    -0.02400
C729        C  0.10345337  0.90343330  0.89620815     0.07600
C730        C  0.11964475  0.90838439  0.85776172    -0.02600
Br731      Br  0.11757317  0.94986749  0.83351618    -0.01100
Br732      Br  0.16199967  0.89037341  0.78552974    -0.01200
Br733      Br  0.08210215  0.86576055  0.96577386    -0.01200
Br734      Br  0.12868992  0.80704314  0.91864911    -0.01100
C735        C  0.36831082  0.84802914  0.60341568    -0.02300
C736        C  0.34929324  0.85344615  0.64031193     0.07400
C737        C  0.35052409  0.88370578  0.65784849    -0.02400
C738        C  0.37013099  0.90874006  0.63812715    -0.02400
C739        C  0.38869727  0.90345845  0.60093077     0.07600
C740        C  0.38782728  0.87307219  0.58360568    -0.02600
Br741      Br  0.41459223  0.86548603  0.53345105    -0.01100
Br742      Br  0.36931155  0.80591121  0.58108317    -0.01200
Br743      Br  0.36986382  0.95062810  0.66114914    -0.01200
Br744      Br  0.32441771  0.89095646  0.70842482    -0.01100
C745        C  0.57753243  0.42847648  0.08715225     0.42000
N746        N  0.56587371  0.46809210  0.04905189     0.00900
C747        C  0.89731513  0.06286303  0.04567446    -0.06900
H748        H  0.87118643  0.44002895  0.02411447     0.06400
C749        C  0.95184426  0.44668959  0.39853496    -0.07300
Co750      Co  0.99233300  0.50323778  0.07328050     0.74200
N751        N  0.92179345  0.46957320  0.03901308    -0.26500
Co752      Co  0.92428808  0.00456023  0.49514485     0.74100
C753        C  0.91462846  0.43176196  0.41110908     0.42100
N754        N  0.54605315  0.46924611  0.43052556     0.00500
N755        N  0.92753767  0.47035071  0.45039280     0.00700
N756        N  0.94251003  0.06139153  0.09599900    -0.47300
H757        H  0.52164684  0.43818093  0.12526549     0.06400
N758        N  0.94750986  0.46912724  0.06890526     0.00900
N759        N  0.92871805  0.03945399  0.45125944     0.00700
C760        C  0.91627210  0.07830153  0.41205345     0.42300
N761        N  0.57181214  0.46873632  0.46038316    -0.25900
C762        C  0.54323508  0.06065032  0.10224954    -0.06800
N763        N  0.59161082  0.44485161  0.05551862    -0.47000
N764        N  0.90262798  0.06235341  0.44424638    -0.47300
C765        C  0.58025580  0.07569623  0.08939810     0.42100
N766        N  0.94878385  0.03845841  0.06975168     0.00900
N767        N  0.57287355  0.03789859  0.46137102    -0.25900
N768        N  0.53607647  0.46815673  0.07488897    -0.26400
N769        N  0.54726949  0.03840499  0.43140645     0.00600
H770        H  0.62370796  0.06703172  0.47634755     0.06500
H771        H  0.97236901  0.06851487  0.37422198     0.06500
N772        N  0.92278109  0.03877378  0.04008434    -0.26500
N773        N  0.95739823  0.47031930  0.42462584    -0.25900
N774        N  0.56709431  0.03731582  0.04992667     0.00900
C775        C  0.90885296  0.42976263  0.08013860     0.42300
C776        C  0.59710817  0.44451294  0.45490464    -0.07400
N777        N  0.95847541  0.03927339  0.42536966    -0.26100
H778        H  0.97098625  0.44112753  0.37348765     0.06500
N779        N  0.94060573  0.44579602  0.09449117    -0.47300
H780        H  0.62200543  0.43845091  0.47401943     0.06500
C781        C  0.58690763  0.07714345  0.41963012     0.42200
C782        C  0.54086708  0.44386580  0.10028418    -0.06900
Co783      Co  0.57030146  0.50300897  0.00525897     0.73800
N784        N  0.55250540  0.44648036  0.40410909    -0.47000
C785        C  0.91074618  0.07786452  0.08250392     0.42400
N786        N  0.59355590  0.05999838  0.05697460    -0.47000
Co787      Co  0.50240230  0.00433536  0.42710157     0.73900
C788        C  0.95325840  0.06309191  0.39937915    -0.07400
C789        C  0.89606482  0.44546948  0.04354753    -0.06900
N790        N  0.53743726  0.03719619  0.07593000    -0.26500
N791        N  0.90104890  0.44772173  0.44322965    -0.47200
H792        H  0.87226326  0.06879952  0.02669973     0.06400
C793        C  0.59895190  0.06169837  0.45671073    -0.07300
Cl794      Cl  0.49732765  0.00379817  0.00019334    -0.50300
C795        C  0.58405359  0.42979401  0.41772894     0.42200
H796        H  0.52427146  0.06612833  0.12745953     0.06400
N797        N  0.55473871  0.06142945  0.40553668    -0.47000
C798        C  0.82815472  0.32744047  0.16060860     0.42000
N799        N  0.81619815  0.28879784  0.20012834     0.00900
C800        C  0.64750148  0.19395346  0.20569352    -0.06900
H801        H  0.61980216  0.31556558  0.22230375     0.06400
C802        C  0.70157773  0.31308007  0.34933457    -0.07300
Co803      Co  0.74267344  0.25311062  0.17657878     0.74200
N804        N  0.67172060  0.28706185  0.20924951    -0.26500
Co805      Co  0.67440926  0.25319030  0.25436314     0.74100
C806        C  0.66459146  0.32786772  0.33606795     0.42100
N807        N  0.79589339  0.28998323  0.31834443     0.00500
N808        N  0.67753856  0.28853654  0.29794139     0.00700
N809        N  0.69219202  0.19505481  0.15487985    -0.47300
H810        H  0.77272411  0.31664777  0.12229571     0.06400
N811        N  0.69778878  0.28732518  0.17963880     0.00900
N812        N  0.67892492  0.21910189  0.29917872     0.00700
C813        C  0.66713630  0.18025256  0.33870939     0.42300
N814        N  0.82198772  0.28973111  0.28877157    -0.25900
C815        C  0.79317399  0.19462726  0.15038672    -0.06800
N816        N  0.84191028  0.31201040  0.19307873    -0.47000
N817        N  0.65354636  0.19564595  0.30607202    -0.47300
C818        C  0.83031558  0.18000680  0.16362583     0.42100
N819        N  0.69884753  0.21813161  0.18081775     0.00900
N820        N  0.82295831  0.22084814  0.29018032    -0.25900
N821        N  0.78664466  0.28802252  0.17401780    -0.26400
N822        N  0.79686753  0.22073513  0.31974189     0.00600
H823        H  0.87448730  0.19199124  0.27717485     0.06500
H824        H  0.72219083  0.19184636  0.37734911     0.06500
N825        N  0.67302031  0.21813210  0.21062636    -0.26500
N826        N  0.70722160  0.28902128  0.32390822    -0.26100
N827        N  0.81740027  0.21956143  0.20136944     0.00900
C828        C  0.65777249  0.32532882  0.16633873     0.42300
C829        C  0.84788613  0.31360326  0.29397246    -0.07400
N830        N  0.70831091  0.22007417  0.32540167    -0.26100
H831        H  0.72054497  0.31904729  0.37437440     0.06500
N832        N  0.69047192  0.30991596  0.15310835    -0.47300
H833        H  0.87319881  0.31898464  0.27505228     0.06500
C834        C  0.83612522  0.18209631  0.33296280     0.42200
C835        C  0.79173612  0.31159789  0.14763179    -0.06900
Co836      Co  0.82052542  0.25475075  0.24500505     0.73800
N837        N  0.80257034  0.31307670  0.34424746    -0.47000
C838        C  0.66047664  0.17872275  0.16889173     0.42400
N839        N  0.84388337  0.19679455  0.19510209    -0.47000
Co840      Co  0.75213237  0.25498178  0.32273710     0.73900
C841        C  0.70329016  0.19653999  0.35182191    -0.07400
C842        C  0.64511863  0.31028451  0.20339026    -0.06900
N843        N  0.78762176  0.21893506  0.17550311    -0.26500
N844        N  0.65112246  0.31135879  0.30429138    -0.47200
H845        H  0.62244308  0.18831846  0.22483676     0.06400
C846        C  0.84916610  0.19735273  0.29604872    -0.07300
Cl847      Cl  0.74743413  0.25403737  0.24965070    -0.50300
C848        C  0.83475432  0.32900648  0.33059725     0.42200
H849        H  0.77411658  0.18844498  0.12549929     0.06400
N850        N  0.80369021  0.19793045  0.34609598    -0.47000
C851        C  0.63948900  0.12201633  0.16603689    -0.02300
C852        C  0.64085261  0.15219085  0.14804523     0.07400
C853        C  0.62292748  0.15706465  0.11040852    -0.02400
C854        C  0.60344792  0.13185012  0.09097015    -0.02400
C855        C  0.60165742  0.10181183  0.10922126     0.07600
C856        C  0.61996538  0.09683567  0.14660660    -0.02600
Br857      Br  0.61968521  0.05517965  0.17042693    -0.01100
Br858      Br  0.66565729  0.11491212  0.21665314    -0.01200
Br859      Br  0.57790159  0.13863580  0.03997150    -0.01200
Br860      Br  0.62312489  0.19867847  0.08645356    -0.01100
C861        C  0.66802609  0.12622617  0.36983410    -0.02300
C862        C  0.64648502  0.15357654  0.35868378     0.07400
C863        C  0.60517065  0.15544803  0.36698804    -0.02400
C864        C  0.58565821  0.13027452  0.38657003    -0.02400
C865        C  0.60739229  0.10328709  0.39852006     0.07600
C866        C  0.64859314  0.10124473  0.38987731    -0.02600
Br867      Br  0.67830151  0.06340722  0.40300678    -0.01100
Br868      Br  0.72367551  0.12172559  0.35544285    -0.01200
Br869      Br  0.52933806  0.13357213  0.39861816    -0.01200
Br870      Br  0.57531282  0.19320211  0.35383484    -0.01100
C871        C  0.57989478  0.37196507  0.10913004    -0.02300
C872        C  0.59840606  0.40189965  0.10664042     0.07400
C873        C  0.63676588  0.40647266  0.12310953    -0.02400
C874        C  0.65636090  0.38124158  0.14237356    -0.02400
C875        C  0.63771365  0.35141742  0.14512441     0.07600
C876        C  0.59959998  0.34671419  0.12824218    -0.02600
Br877      Br  0.57511049  0.30531427  0.12980178    -0.01100
Br878      Br  0.52821837  0.36519666  0.08494621    -0.01200
Br879      Br  0.70801417  0.38782313  0.16664451    -0.01200
Br880      Br  0.66164120  0.44772651  0.12125389    -0.01100
C881        C  0.85409890  0.09823610  0.12363917    -0.02300
C882        C  0.89094931  0.10372178  0.10447066     0.07400
C883        C  0.90869521  0.13396201  0.10610172    -0.02400
C884        C  0.88912775  0.15889833  0.12600592    -0.02400
C885        C  0.85177294  0.15359693  0.14435957     0.07600
C886        C  0.83447620  0.12315647  0.14345765    -0.02600
Br887      Br  0.78459737  0.11532551  0.17071033    -0.01100
Br888      Br  0.83131026  0.05622386  0.12405738    -0.01200
Br889      Br  0.91255760  0.20070070  0.12639062    -0.01200
Br890      Br  0.95919168  0.14140420  0.07986647    -0.01100
C891        C  0.89336956  0.35058453  0.36793245    -0.02300
C892        C  0.85477729  0.35500777  0.35204549     0.07400
C893        C  0.83532960  0.38432955  0.35659696    -0.02400
C894        C  0.85478981  0.40946083  0.37621982    -0.02400
C895        C  0.89369671  0.40522408  0.39152990     0.07600
C896        C  0.91284059  0.37567242  0.38758535    -0.02600
Br897      Br  0.96505067  0.36904023  0.41070209    -0.01100
Br898      Br  0.91881817  0.30966868  0.36458351    -0.01200
Br899      Br  0.82890307  0.45016760  0.38007681    -0.01200
Br900      Br  0.78258873  0.39036149  0.33449342    -0.01100
C901        C  0.88512400  0.13204907  0.41367168    -0.02300
C902        C  0.89480779  0.10446278  0.39210919     0.07400
C903        C  0.88354312  0.10181586  0.35164527    -0.02400
C904        C  0.86379052  0.12703220  0.33249265    -0.02400
C905        C  0.85517688  0.15507289  0.35369596     0.07600
C906        C  0.86537955  0.15731269  0.39454427    -0.02600
Br907      Br  0.85428567  0.19551731  0.42416007    -0.01100
Br908      Br  0.90052085  0.13585777  0.46909670    -0.01200
Br909      Br  0.84630041  0.12209467  0.27782225    -0.01200
Br910      Br  0.89270688  0.06287082  0.32289627    -0.01100
C911        C  0.63898255  0.38341607  0.33769799    -0.02300
C912        C  0.64259253  0.35356633  0.35617371     0.07400
C913        C  0.62597065  0.34848316  0.39434385    -0.02400
C914        C  0.60637249  0.37334541  0.41430250    -0.02400
C915        C  0.60345335  0.40343334  0.39620810     0.07600
C916        C  0.61964484  0.40838447  0.35776169    -0.02600
Br917      Br  0.61757332  0.44986759  0.33351600    -0.01100
Br918      Br  0.66199983  0.39037331  0.28552981    -0.01200
Br919      Br  0.58210230  0.36576067  0.46577395    -0.01200
Br920      Br  0.62869005  0.30704326  0.41864893    -0.01100
C921        C  0.86831067  0.34802914  0.10341564    -0.02300
C922        C  0.84929320  0.35344615  0.14031195     0.07400
C923        C  0.85052422  0.38370577  0.15784855    -0.02400
C924        C  0.87013110  0.40874003  0.13812718    -0.02400
C925        C  0.88869732  0.40345844  0.10093079     0.07600
C926        C  0.88782720  0.37307219  0.08360568    -0.02600
Br927      Br  0.91459209  0.36548592  0.03345111    -0.01100
Br928      Br  0.86931169  0.30591111  0.08108327    -0.01200
Br929      Br  0.86986369  0.45062802  0.16114922    -0.01200
Br930      Br  0.82441786  0.39095657  0.20842491    -0.01100
C931        C  0.57753243  0.42847644  0.58715219     0.42000
N932        N  0.56587381  0.46809212  0.54905194     0.00900
C933        C  0.89731525  0.06286308  0.54567437    -0.06900
H934        H  0.87118692  0.44002918  0.52411478     0.06400
C935        C  0.95184426  0.44668957  0.89853499    -0.07300
Co936      Co  0.99233302  0.50323784  0.57328063     0.74200
N937        N  0.92179346  0.46957323  0.53901306    -0.26500
Co938      Co  0.92428792  0.00456017  0.99514492     0.74100
C939        C  0.91462843  0.43176198  0.91110909     0.42100
N940        N  0.54605320  0.46924620  0.93052549     0.00500
N941        N  0.92753764  0.47035077  0.95039279     0.00700
N942        N  0.94251013  0.06139158  0.59599894    -0.47300
H943        H  0.52164695  0.43818083  0.62526532     0.06400
N944        N  0.94750980  0.46912728  0.56890528     0.00900
N945        N  0.92871785  0.03945401  0.95125944     0.00700
C946        C  0.91627203  0.07830156  0.91205339     0.42300
N947        N  0.57181207  0.46873639  0.96038316    -0.25900
C948        C  0.54323511  0.06065039  0.60224961    -0.06800
N949        N  0.59161093  0.44485161  0.55551865    -0.47000
N950        N  0.90262785  0.06235347  0.94424631    -0.47300
C951        C  0.58025583  0.07569621  0.58939805     0.42100
N952        N  0.94878398  0.03845847  0.56975161     0.00900
N953        N  0.57287344  0.03789859  0.96137106    -0.25900
N954        N  0.53607652  0.46815672  0.57488898    -0.26400
N955        N  0.54726940  0.03840497  0.93140646     0.00600
H956        H  0.62370830  0.06703163  0.97634788     0.06500
H957        H  0.97236878  0.06851472  0.87422206     0.06500
N958        N  0.92278125  0.03877386  0.54008423    -0.26500
N959        N  0.95739818  0.47031935  0.92462581    -0.25900
N960        N  0.56709426  0.03731578  0.54992671     0.00900
C961        C  0.90885291  0.42976266  0.58013857     0.42300
C962        C  0.59710806  0.44451298  0.95490473    -0.07400
N963        N  0.95847523  0.03927339  0.92536968    -0.26100
H964        H  0.97098624  0.44112740  0.87348778     0.06500
N965        N  0.94060563  0.44579606  0.59449118    -0.47300
H966        H  0.62200529  0.43845095  0.97401966     0.06500
C967        C  0.58690757  0.07714343  0.91963015     0.42200
C968        C  0.54086707  0.44386572  0.60028412    -0.06900
Co969      Co  0.57030153  0.50300890  0.50525895     0.73800
N970        N  0.55250550  0.44648045  0.90410902    -0.47000
C971        C  0.91074623  0.07786452  0.58250388     0.42400
N972        N  0.59355587  0.05999834  0.55697457    -0.47000
Co973      Co  0.50240224  0.00433539  0.92710163     0.73900
C974        C  0.95325828  0.06309187  0.89937903    -0.07400
C975        C  0.89606470  0.44546952  0.54354743    -0.06900
N976        N  0.53743720  0.03719625  0.57593005    -0.26500
N977        N  0.90104888  0.44772178  0.94322965    -0.47200
H978        H  0.87226339  0.06879957  0.52669963     0.06400
C979        C  0.59895180  0.06169828  0.95671069    -0.07300
Cl980      Cl  0.49732756  0.00379823  0.50019342    -0.50300
C981        C  0.58405363  0.42979407  0.91772894     0.42200
H982        H  0.52427176  0.06612840  0.62745944     0.06400
N983        N  0.55473868  0.06142939  0.90553667    -0.47000
C984        C  0.82815473  0.32744056  0.66060856     0.42000
N985        N  0.81619822  0.28879790  0.70012824     0.00900
C986        C  0.64750151  0.19395343  0.70569364    -0.06900
H987        H  0.61980164  0.31556576  0.72230415     0.06400
C988        C  0.70157769  0.31308009  0.84933445    -0.07300
Co989      Co  0.74267336  0.25311068  0.67657873     0.74200
N990        N  0.67172053  0.28706190  0.70924949    -0.26500
Co991      Co  0.67440916  0.25319035  0.75436311     0.74100
C992        C  0.66459144  0.32786774  0.83606792     0.42100
N993        N  0.79589326  0.28998324  0.81834442     0.00500
N994        N  0.67753850  0.28853656  0.79794134     0.00700
N995        N  0.69219198  0.19505477  0.65487987    -0.47300
H996        H  0.77272411  0.31664785  0.62229561     0.06400
N997        N  0.69778870  0.28732523  0.67963875     0.00900
N998        N  0.67892478  0.21910197  0.79917881     0.00700
C999        C  0.66713629  0.18025260  0.83870948     0.42300
N1000       N  0.82198763  0.28973111  0.78877156    -0.25900
C1001       C  0.79317402  0.19462730  0.65038679    -0.06800
N1002       N  0.84191034  0.31201047  0.69307864    -0.47000
N1003       N  0.65354625  0.19564604  0.80607218    -0.47300
C1004       C  0.83031558  0.18000685  0.66362577     0.42100
N1005       N  0.69884746  0.21813164  0.68081769     0.00900
N1006       N  0.82295832  0.22084819  0.79018041    -0.25900
N1007       N  0.78664469  0.28802258  0.67401772    -0.26400
N1008       N  0.79686761  0.22073519  0.81974203     0.00600
H1009       H  0.87448674  0.19199137  0.77717516     0.06500
H1010       H  0.72219134  0.19184631  0.87734945     0.06500
N1011       N  0.67302032  0.21813211  0.71062635    -0.26500
N1012       N  0.70722159  0.28902130  0.82390814    -0.26100
N1013       N  0.81740026  0.21956151  0.70136941     0.00900
C1014       C  0.65777242  0.32532886  0.66633872     0.42300
C1015       C  0.84788599  0.31360316  0.79397260    -0.07400
N1016       N  0.70831086  0.22007421  0.82540169    -0.26100
H1017       H  0.72054512  0.31904740  0.87437460     0.06500
N1018       N  0.69047176  0.30991594  0.65310824    -0.47300
H1019       H  0.87319948  0.31898463  0.77505195     0.06500
C1020       C  0.83612511  0.18209625  0.83296279     0.42200
C1021       C  0.79173616  0.31159794  0.64763171    -0.06900
Co1022     Co  0.82052546  0.25475081  0.74500503     0.73800
N1023       N  0.80257023  0.31307671  0.84424746    -0.47000
C1024       C  0.66047658  0.17872273  0.66889177     0.42400
N1025       N  0.84388338  0.19679466  0.69510200    -0.47000
Co1026     Co  0.75213237  0.25498176  0.82273709     0.73900
C1027       C  0.70329014  0.19654005  0.85182185    -0.07400
C1028       C  0.64511867  0.31028456  0.70339021    -0.06900
N1029       N  0.78762170  0.21893509  0.67550310    -0.26500
N1030       N  0.65112231  0.31135873  0.80429147    -0.47200
H1031       H  0.62244335  0.18831852  0.72483683     0.06400
C1032       C  0.84916612  0.19735273  0.79604870    -0.07300
Cl1033     Cl  0.74743417  0.25403743  0.74965076    -0.50300
C1034       C  0.83475427  0.32900646  0.83059728     0.42200
H1035       H  0.77411628  0.18844488  0.62549886     0.06400
N1036       N  0.80369028  0.19793049  0.84609612    -0.47000
C1037       C  0.63948893  0.12201629  0.66603689    -0.02300
C1038       C  0.64085247  0.15219083  0.64804527     0.07400
C1039       C  0.62292737  0.15706458  0.61040852    -0.02400
C1040       C  0.60344793  0.13185005  0.59097009    -0.02400
C1041       C  0.60165753  0.10181174  0.60922117     0.07600
C1042       C  0.61996543  0.09683561  0.64660656    -0.02600
Br1043     Br  0.61968502  0.05517971  0.67042714    -0.01100
Br1044     Br  0.66565740  0.11491198  0.71665304    -0.01200
Br1045     Br  0.57790170  0.13863585  0.53997142    -0.01200
Br1046     Br  0.62312471  0.19867832  0.58645347    -0.01100
C1047       C  0.66802612  0.12622620  0.86983423    -0.02300
C1048       C  0.64648502  0.15357654  0.85868380     0.07400
C1049       C  0.60517065  0.15544803  0.86698800    -0.02400
C1050       C  0.58565820  0.13027449  0.88656995    -0.02400
C1051       C  0.60739222  0.10328706  0.89852004     0.07600
C1052       C  0.64859312  0.10124476  0.88987745    -0.02600
Br1053     Br  0.67830160  0.06340729  0.90300670    -0.01100
Br1054     Br  0.72367559  0.12172566  0.85544278    -0.01200
Br1055     Br  0.52933814  0.13357200  0.89861807    -0.01200
Br1056     Br  0.57531292  0.19320218  0.85383476    -0.01100
C1057       C  0.57989478  0.37196507  0.60912998    -0.02300
C1058       C  0.59840601  0.40189966  0.60664046     0.07400
C1059       C  0.63676587  0.40647263  0.62310948    -0.02400
C1060       C  0.65636091  0.38124157  0.64237351    -0.02400
C1061       C  0.63771360  0.35141743  0.64512441     0.07600
C1062       C  0.59959995  0.34671419  0.62824209    -0.02600
Br1063     Br  0.57511032  0.30531434  0.62980170    -0.01100
Br1064     Br  0.52821847  0.36519652  0.58494611    -0.01200
Br1065     Br  0.70801426  0.38782319  0.66664442    -0.01200
Br1066     Br  0.66164131  0.44772637  0.62125379    -0.01100
C1067       C  0.85409887  0.09823601  0.62363911    -0.02300
C1068       C  0.89094929  0.10372174  0.60447062     0.07400
C1069       C  0.90869516  0.13396200  0.60610159    -0.02400
C1070       C  0.88912771  0.15889832  0.62600583    -0.02400
C1071       C  0.85177291  0.15359690  0.64435954     0.07600
C1072       C  0.83447621  0.12315638  0.64345769    -0.02600
Br1073     Br  0.78459747  0.11532535  0.67071054    -0.01100
Br1074     Br  0.83131036  0.05622370  0.62405729    -0.01200
Br1075     Br  0.91255769  0.20070075  0.62639054    -0.01200
Br1076     Br  0.95919176  0.14140427  0.57986639    -0.01100
C1077       C  0.89336962  0.35058450  0.86793236    -0.02300
C1078       C  0.85477731  0.35500775  0.85204547     0.07400
C1079       C  0.83532965  0.38432957  0.85659690    -0.02400
C1080       C  0.85478976  0.40946084  0.87621986    -0.02400
C1081       C  0.89369667  0.40522409  0.89152992     0.07600
C1082       C  0.91284060  0.37567244  0.88758524    -0.02600
Br1083     Br  0.96505050  0.36904030  0.91070230    -0.01100
Br1084     Br  0.91881826  0.30966855  0.86458371    -0.01200
Br1085     Br  0.82890291  0.45016766  0.88007674    -0.01200
Br1086     Br  0.78258884  0.39036157  0.83449333    -0.01100
C1087       C  0.88512385  0.13204902  0.91367164    -0.02300
C1088       C  0.89480770  0.10446275  0.89210911     0.07400
C1089       C  0.88354305  0.10181581  0.85164517    -0.02400
C1090       C  0.86379054  0.12703220  0.83249256    -0.02400
C1091       C  0.85517677  0.15507283  0.85369593     0.07600
C1092       C  0.86537950  0.15731266  0.89454423    -0.02600
Br1093     Br  0.85428578  0.19551738  0.92415998    -0.01100
Br1094     Br  0.90052067  0.13585784  0.96909662    -0.01200
Br1095     Br  0.84630052  0.12209475  0.77782216    -0.01200
Br1096     Br  0.89270669  0.06287068  0.82289619    -0.01100
C1097       C  0.63898264  0.38341607  0.83769805    -0.02300
C1098       C  0.64259257  0.35356633  0.85617375     0.07400
C1099       C  0.62597069  0.34848315  0.89434390    -0.02400
C1100       C  0.60637241  0.37334536  0.91430247    -0.02400
C1101       C  0.60345333  0.40343331  0.89620813     0.07600
C1102       C  0.61964476  0.40838439  0.85776171    -0.02600
Br1103     Br  0.61757314  0.44986746  0.83351617    -0.01100
Br1104     Br  0.66199965  0.39037338  0.78552973    -0.01200
Br1105     Br  0.58210211  0.36576053  0.96577386    -0.01200
Br1106     Br  0.62868989  0.30704332  0.91864913    -0.01100
C1107       C  0.86831079  0.34802917  0.60341567    -0.02300
C1108       C  0.84929321  0.35344620  0.64031192     0.07400
C1109       C  0.85052407  0.38370584  0.65784848    -0.02400
C1110       C  0.87013101  0.40874008  0.63812714    -0.02400
C1111       C  0.88869734  0.40345845  0.60093079     0.07600
C1112       C  0.88782729  0.37307220  0.58360569    -0.02600
Br1113     Br  0.91459219  0.36548600  0.53345105    -0.01100
Br1114     Br  0.86931152  0.30591119  0.58108318    -0.01200
Br1115     Br  0.86986379  0.45062809  0.66114914    -0.01200
Br1116     Br  0.82441767  0.39095665  0.70842482    -0.01100
C1117       C  0.57753244  0.92847645  0.08715225     0.42000
N1118       N  0.56587367  0.96809207  0.04905191     0.00900
C1119       C  0.89731513  0.56286302  0.04567450    -0.06900
H1120       H  0.87118667  0.94002899  0.02411462     0.06400
C1121       C  0.95184425  0.94668963  0.39853494    -0.07300
Co1122     Co  0.99233299  0.00323778  0.07328051     0.74200
N1123       N  0.92179338  0.96957322  0.03901310    -0.26500
Co1124     Co  0.92428804  0.50456014  0.49514484     0.74100
C1125       C  0.91462848  0.93176199  0.41110909     0.42100
N1126       N  0.54605317  0.96924612  0.43052554     0.00500
N1127       N  0.92753769  0.97035077  0.45039280     0.00700
N1128       N  0.94251014  0.56139155  0.09599897    -0.47300
H1129       H  0.52164691  0.93818078  0.12526537     0.06400
N1130       N  0.94750981  0.96912726  0.06890525     0.00900
N1131       N  0.92871798  0.53945397  0.45125944     0.00700
C1132       C  0.91627206  0.57830152  0.41205345     0.42300
N1133       N  0.57181213  0.96873632  0.46038317    -0.25900
C1134       C  0.54323507  0.56065036  0.10224953    -0.06800
N1135       N  0.59161082  0.94485161  0.05551864    -0.47000
N1136       N  0.90262794  0.56235342  0.44424639    -0.47300
C1137       C  0.58025582  0.57569621  0.08939809     0.42100
N1138       N  0.94878389  0.53845842  0.06975165     0.00900
N1139       N  0.57287350  0.53789850  0.46137099    -0.25900
N1140       N  0.53607640  0.96815664  0.07488895    -0.26400
N1141       N  0.54726941  0.53840495  0.43140646     0.00600
H1142       H  0.62370802  0.56703154  0.47634764     0.06500
H1143       H  0.97236897  0.56851490  0.37422198     0.06500
N1144       N  0.92278111  0.53877379  0.04008434    -0.26500
N1145       N  0.95739824  0.97031933  0.42462582    -0.25900
N1146       N  0.56709429  0.53731579  0.04992670     0.00900
C1147       C  0.90885291  0.92976264  0.08013861     0.42300
C1148       C  0.59710812  0.94451298  0.45490463    -0.07400
N1149       N  0.95847536  0.53927341  0.42536967    -0.26100
H1150       H  0.97098624  0.94112755  0.37348762     0.06500
N1151       N  0.94060569  0.94579604  0.09449117    -0.47300
H1152       H  0.62200576  0.93845089  0.47401971     0.06500
C1153       C  0.58690763  0.57714336  0.41963009     0.42200
C1154       C  0.54086700  0.94386567  0.10028415    -0.06900
Co1155     Co  0.57030148  0.00300895  0.00525897     0.73800
N1156       N  0.55250550  0.94648040  0.40410905    -0.47000
C1157       C  0.91074621  0.57786449  0.08250396     0.42400
N1158       N  0.59355589  0.55999836  0.05697459    -0.47000
Co1159     Co  0.50240229  0.50433536  0.42710157     0.73900
C1160       C  0.95325836  0.56309193  0.39937916    -0.07400
C1161       C  0.89606474  0.94546947  0.04354749    -0.06900
N1162       N  0.53743722  0.53719621  0.07593001    -0.26500
N1163       N  0.90104896  0.94772175  0.44322970    -0.47200
H1164       H  0.87226325  0.56879954  0.02669975     0.06400
C1165       C  0.59895189  0.56169822  0.45671069    -0.07300
Cl1166     Cl  0.49732763  0.50379820  0.00019334    -0.50300
C1167       C  0.58405366  0.92979403  0.41772896     0.42200
H1168       H  0.52427149  0.56612840  0.12745945     0.06400
N1169       N  0.55473863  0.56142942  0.40553671    -0.47000
C1170       C  0.82815468  0.82744050  0.16060861     0.42000
N1171       N  0.81619821  0.78879787  0.20012833     0.00900
C1172       C  0.64750169  0.69395346  0.20569351    -0.06900
H1173       H  0.61980181  0.81556575  0.22230415     0.06400
C1174       C  0.70157775  0.81308005  0.34933451    -0.07300
Co1175     Co  0.74267344  0.75311065  0.17657877     0.74200
N1176       N  0.67172061  0.78706188  0.20924952    -0.26500
Co1177     Co  0.67440923  0.75319032  0.25436314     0.74100
C1178       C  0.66459156  0.82786778  0.33606793     0.42100
N1179       N  0.79589336  0.78998320  0.31834442     0.00500
N1180       N  0.67753851  0.78853655  0.29794140     0.00700
N1181       N  0.69219213  0.69505480  0.15487985    -0.47300
H1182       H  0.77272409  0.81664779  0.12229579     0.06400
N1183       N  0.69778878  0.78732520  0.17963878     0.00900
N1184       N  0.67892487  0.71910191  0.29917873     0.00700
C1185       C  0.66713624  0.68025258  0.33870939     0.42300
N1186       N  0.82198771  0.78973112  0.28877158    -0.25900
C1187       C  0.79317394  0.69462728  0.15038673    -0.06800
N1188       N  0.84191028  0.81201046  0.19307874    -0.47000
N1189       N  0.65354630  0.69564598  0.30607202    -0.47300
C1190       C  0.83031553  0.68000679  0.16362583     0.42100
N1191       N  0.69884760  0.71813163  0.18081771     0.00900
N1192       N  0.82295832  0.72084815  0.29018032    -0.25900
N1193       N  0.78664469  0.78802252  0.17401780    -0.26400
N1194       N  0.79686754  0.72073512  0.31974189     0.00600
H1195       H  0.87448728  0.69199128  0.27717483     0.06500
H1196       H  0.72219079  0.69184637  0.37734910     0.06500
N1197       N  0.67302041  0.71813210  0.21062636    -0.26500
N1198       N  0.70722157  0.78902124  0.32390824    -0.26100
N1199       N  0.81740028  0.71956146  0.20136943     0.00900
C1200       C  0.65777248  0.82532885  0.16633874     0.42300
C1201       C  0.84788608  0.81360329  0.29397246    -0.07400
N1202       N  0.70831087  0.72007415  0.32540166    -0.26100
H1203       H  0.72054525  0.81904734  0.37437467     0.06500
N1204       N  0.69047190  0.80991598  0.15310833    -0.47300
H1205       H  0.87319878  0.81898467  0.27505231     0.06500
C1206       C  0.83612526  0.68209633  0.33296281     0.42200
C1207       C  0.79173610  0.81159790  0.14763179    -0.06900
Co1208     Co  0.82052553  0.75475078  0.24500505     0.73800
N1209       N  0.80257028  0.81307669  0.34424745    -0.47000
C1210       C  0.66047677  0.67872271  0.16889176     0.42400
N1211       N  0.84388333  0.69679456  0.19510208    -0.47000
Co1212     Co  0.75213233  0.75498170  0.32273710     0.73900
C1213       C  0.70329010  0.69654000  0.35182191    -0.07400
C1214       C  0.64511875  0.81028455  0.20339025    -0.06900
N1215       N  0.78762174  0.71893508  0.17550312    -0.26500
N1216       N  0.65112247  0.81135884  0.30429140    -0.47200
H1217       H  0.62244286  0.68831838  0.22483706     0.06400
C1218       C  0.84916610  0.69735274  0.29604870    -0.07300
Cl1219     Cl  0.74743413  0.75403739  0.24965070    -0.50300
C1220       C  0.83475427  0.82900649  0.33059726     0.42200
H1221       H  0.77411653  0.68844501  0.12549930     0.06400
N1222       N  0.80369030  0.69793049  0.34609602    -0.47000
C1223       C  0.63948895  0.62201632  0.16603690    -0.02300
C1224       C  0.64085260  0.65219087  0.14804525     0.07400
C1225       C  0.62292743  0.65706468  0.11040853    -0.02400
C1226       C  0.60344787  0.63185015  0.09097015    -0.02400
C1227       C  0.60165741  0.60181184  0.10922124     0.07600
C1228       C  0.61996533  0.59683569  0.14660659    -0.02600
Br1229     Br  0.61968516  0.55517968  0.17042693    -0.01100
Br1230     Br  0.66565724  0.61491193  0.21665313    -0.01200
Br1231     Br  0.57790154  0.63863582  0.03997150    -0.01200
Br1232     Br  0.62312484  0.69867850  0.08645356    -0.01100
C1233       C  0.66802612  0.62622618  0.36983410    -0.02300
C1234       C  0.64648499  0.65357655  0.35868378     0.07400
C1235       C  0.60517061  0.65544802  0.36698806    -0.02400
C1236       C  0.58565817  0.63027449  0.38657005    -0.02400
C1237       C  0.60739225  0.60328704  0.39852003     0.07600
C1238       C  0.64859313  0.60124473  0.38987730    -0.02600
Br1239     Br  0.67830147  0.56340724  0.40300678    -0.01100
Br1240     Br  0.72367571  0.62172562  0.35544286    -0.01200
Br1241     Br  0.52933802  0.63357215  0.39861816    -0.01200
Br1242     Br  0.57531277  0.69320213  0.35383484    -0.01100
C1243       C  0.57989480  0.87196506  0.10912999    -0.02300
C1244       C  0.59840609  0.90189965  0.10664040     0.07400
C1245       C  0.63676592  0.90647267  0.12310949    -0.02400
C1246       C  0.65636091  0.88124161  0.14237356    -0.02400
C1247       C  0.63771365  0.85141745  0.14512444     0.07600
C1248       C  0.59959999  0.84671422  0.12824218    -0.02600
Br1249     Br  0.57511045  0.80531430  0.12980179    -0.01100
Br1250     Br  0.52821834  0.86519648  0.08494621    -0.01200
Br1251     Br  0.70801414  0.88782316  0.16664452    -0.01200
Br1252     Br  0.66164116  0.94772654  0.12125389    -0.01100
C1253       C  0.85409898  0.59823608  0.12363916    -0.02300
C1254       C  0.89094937  0.60372175  0.10447070     0.07400
C1255       C  0.90869520  0.63396200  0.10610170    -0.02400
C1256       C  0.88912772  0.65889833  0.12600590    -0.02400
C1257       C  0.85177293  0.65359691  0.14435957     0.07600
C1258       C  0.83447626  0.62315644  0.14345760    -0.02600
Br1259     Br  0.78459758  0.61532552  0.17071034    -0.01100
Br1260     Br  0.83131049  0.55622387  0.12405738    -0.01200
Br1261     Br  0.91255755  0.70070072  0.12639062    -0.01200
Br1262     Br  0.95919164  0.64140423  0.07986646    -0.01100
C1263       C  0.89336956  0.85058452  0.36793248    -0.02300
C1264       C  0.85477730  0.85500775  0.35204554     0.07400
C1265       C  0.83532972  0.88432957  0.35659693    -0.02400
C1266       C  0.85478989  0.90946086  0.37621977    -0.02400
C1267       C  0.89369674  0.90522410  0.39152992     0.07600
C1268       C  0.91284060  0.87567242  0.38758536    -0.02600
Br1269     Br  0.96505062  0.86904026  0.41070209    -0.01100
Br1270     Br  0.91881813  0.80966870  0.36458351    -0.01200
Br1271     Br  0.82890304  0.95016762  0.38007682    -0.01200
Br1272     Br  0.78258896  0.89036152  0.33449341    -0.01100
C1273       C  0.88512390  0.63204900  0.41367170    -0.02300
C1274       C  0.89480775  0.60446274  0.39210917     0.07400
C1275       C  0.88354309  0.60181580  0.35164522    -0.02400
C1276       C  0.86379049  0.62703217  0.33249262    -0.02400
C1277       C  0.85517687  0.65507286  0.35369596     0.07600
C1278       C  0.86537948  0.65731262  0.39454430    -0.02600
Br1279     Br  0.85428591  0.69551733  0.42416006    -0.01100
Br1280     Br  0.90052080  0.63585779  0.46909670    -0.01200
Br1281     Br  0.84630036  0.62209470  0.27782225    -0.01200
Br1282     Br  0.89270682  0.56287064  0.32289628    -0.01100
C1283       C  0.63898256  0.88341608  0.33769799    -0.02300
C1284       C  0.64259265  0.85356636  0.35617374     0.07400
C1285       C  0.62597062  0.84848315  0.39434381    -0.02400
C1286       C  0.60637249  0.87334539  0.41430247    -0.02400
C1287       C  0.60345347  0.90343336  0.39620814     0.07600
C1288       C  0.61964484  0.90838447  0.35776168    -0.02600
Br1289     Br  0.61757327  0.94986761  0.33351600    -0.01100
Br1290     Br  0.66199978  0.89037334  0.28552980    -0.01200
Br1291     Br  0.58210226  0.86576069  0.46577394    -0.01200
Br1292     Br  0.62869001  0.80704328  0.41864893    -0.01100
C1293       C  0.86831063  0.84802916  0.10341561    -0.02300
C1294       C  0.84929315  0.85344616  0.14031193     0.07400
C1295       C  0.85052418  0.88370578  0.15784856    -0.02400
C1296       C  0.87013110  0.90874003  0.13812720    -0.02400
C1297       C  0.88869728  0.90345844  0.10093078     0.07600
C1298       C  0.88782718  0.87307219  0.08360564    -0.02600
Br1299     Br  0.91459233  0.86548595  0.03345113    -0.01100
Br1300     Br  0.86931164  0.80591114  0.08108326    -0.01200
Br1301     Br  0.86986393  0.95062803  0.16114922    -0.01200
Br1302     Br  0.82441781  0.89095660  0.20842491    -0.01100
C1303       C  0.57753251  0.92847648  0.58715223     0.42000
N1304       N  0.56587377  0.96809213  0.54905193     0.00900
C1305       C  0.89731520  0.56286306  0.54567434    -0.06900
H1306       H  0.87118686  0.94002921  0.52411488     0.06400
C1307       C  0.95184419  0.94668959  0.89853506    -0.07300
Co1308     Co  0.99233305  0.00323782  0.57328063     0.74200
N1309       N  0.92179344  0.96957324  0.53901309    -0.26500
Co1310     Co  0.92428804  0.50456017  0.99514492     0.74100
C1311       C  0.91462840  0.93176198  0.91110909     0.42100
N1312       N  0.54605308  0.96924615  0.93052552     0.00500
N1313       N  0.92753757  0.97035080  0.95039278     0.00700
N1314       N  0.94251008  0.56139156  0.59599893    -0.47300
H1315       H  0.52164701  0.93818080  0.62526529     0.06400
N1316       N  0.94750982  0.96912724  0.56890527     0.00900
N1317       N  0.92871785  0.53945400  0.95125944     0.00700
C1318       C  0.91627197  0.57830153  0.91205338     0.42300
N1319       N  0.57181201  0.96873637  0.96038316    -0.25900
C1320       C  0.54323505  0.56065043  0.60224966    -0.06800
N1321       N  0.59161093  0.94485165  0.55551865    -0.47000
N1322       N  0.90262777  0.56235339  0.94424627    -0.47300
C1323       C  0.58025579  0.57569625  0.58939804     0.42100
N1324       N  0.94878389  0.53845843  0.56975162     0.00900
N1325       N  0.57287342  0.53789863  0.96137108    -0.25900
N1326       N  0.53607647  0.96815671  0.57488897    -0.26400
N1327       N  0.54726942  0.53840503  0.93140646     0.00600
H1328       H  0.62370833  0.56703165  0.97634795     0.06500
H1329       H  0.97236919  0.56851491  0.87422144     0.06500
N1330       N  0.92278118  0.53877380  0.54008424    -0.26500
N1331       N  0.95739814  0.97031936  0.92462581    -0.25900
N1332       N  0.56709423  0.53731582  0.54992669     0.00900
C1333       C  0.90885282  0.92976269  0.58013864     0.42300
C1334       C  0.59710803  0.94451299  0.95490471    -0.07400
N1335       N  0.95847523  0.53927341  0.92536965    -0.26100
H1336       H  0.97098653  0.94112731  0.87348749     0.06500
N1337       N  0.94060559  0.94579604  0.59449121    -0.47300
H1338       H  0.62200530  0.93845100  0.97401964     0.06500
C1339       C  0.58690765  0.57714342  0.91963013     0.42200
C1340       C  0.54086709  0.94386572  0.60028413    -0.06900
Co1341     Co  0.57030155  0.00300891  0.50525896     0.73800
N1342       N  0.55250545  0.94648043  0.90410902    -0.47000
C1343       C  0.91074620  0.57786451  0.58250386     0.42400
N1344       N  0.59355584  0.55999838  0.55697457    -0.47000
Co1345     Co  0.50240234  0.50433542  0.92710162     0.73900
C1346       C  0.95325818  0.56309187  0.89937914    -0.07400
C1347       C  0.89606464  0.94546954  0.54354748    -0.06900
N1348       N  0.53743721  0.53719627  0.57593004    -0.26500
N1349       N  0.90104882  0.94772180  0.94322963    -0.47200
H1350       H  0.87226346  0.56879955  0.52669973     0.06400
C1351       C  0.59895180  0.56169830  0.95671072    -0.07300
Cl1352     Cl  0.49732758  0.50379823  0.50019342    -0.50300
C1353       C  0.58405361  0.92979407  0.91772893     0.42200
H1354       H  0.52427193  0.56612833  0.62745921     0.06400
N1355       N  0.55473871  0.56142944  0.90553667    -0.47000
C1356       C  0.82815470  0.82744051  0.66060856     0.42000
N1357       N  0.81619817  0.78879785  0.70012823     0.00900
C1358       C  0.64750150  0.69395344  0.70569362    -0.06900
H1359       H  0.61980195  0.81556575  0.72230390     0.06400
C1360       C  0.70157765  0.81308011  0.84933443    -0.07300
Co1361     Co  0.74267330  0.75311069  0.67657873     0.74200
N1362       N  0.67172049  0.78706193  0.70924949    -0.26500
Co1363     Co  0.67440912  0.75319036  0.75436312     0.74100
C1364       C  0.66459141  0.82786775  0.83606789     0.42100
N1365       N  0.79589330  0.78998319  0.81834446     0.00500
N1366       N  0.67753843  0.78853653  0.79794139     0.00700
N1367       N  0.69219201  0.69505482  0.65487988    -0.47300
H1368       H  0.77272404  0.81664784  0.62229568     0.06400
N1369       N  0.69778866  0.78732525  0.67963876     0.00900
N1370       N  0.67892482  0.71910198  0.79917878     0.00700
C1371       C  0.66713625  0.68025264  0.83870949     0.42300
N1372       N  0.82198766  0.78973107  0.78877160    -0.25900
C1373       C  0.79317399  0.69462727  0.65038679    -0.06800
N1374       N  0.84191032  0.81201038  0.69307862    -0.47000
N1375       N  0.65354625  0.69564607  0.80607217    -0.47300
C1376       C  0.83031560  0.68000686  0.66362577     0.42100
N1377       N  0.69884742  0.71813170  0.68081769     0.00900
N1378       N  0.82295827  0.72084817  0.79018039    -0.25900
N1379       N  0.78664465  0.78802253  0.67401770    -0.26400
N1380       N  0.79686754  0.72073513  0.81974200     0.00600
H1381       H  0.87448682  0.69199143  0.77717510     0.06500
H1382       H  0.72219125  0.69184634  0.87734947     0.06500
N1383       N  0.67302027  0.71813215  0.71062634    -0.26500
N1384       N  0.70722155  0.78902130  0.82390816    -0.26100
N1385       N  0.81740019  0.71956150  0.70136941     0.00900
C1386       C  0.65777243  0.82532888  0.66633872     0.42300
C1387       C  0.84788598  0.81360316  0.79397258    -0.07400
N1388       N  0.70831086  0.72007423  0.82540169    -0.26100
H1389       H  0.72054508  0.81904745  0.87437455     0.06500
N1390       N  0.69047175  0.80991595  0.65310824    -0.47300
H1391       H  0.87319934  0.81898466  0.77505191     0.06500
C1392       C  0.83612520  0.68209630  0.83296283     0.42200
C1393       C  0.79173611  0.81159791  0.64763172    -0.06900
Co1394     Co  0.82052541  0.75475080  0.74500503     0.73800
N1395       N  0.80257021  0.81307671  0.84424744    -0.47000
C1396       C  0.66047669  0.67872271  0.66889179     0.42400
N1397       N  0.84388336  0.69679469  0.69510200    -0.47000
Co1398     Co  0.75213234  0.75498176  0.82273710     0.73900
C1399       C  0.70329011  0.69654008  0.85182188    -0.07400
C1400       C  0.64511859  0.81028461  0.70339025    -0.06900
N1401       N  0.78762161  0.71893505  0.67550312    -0.26500
N1402       N  0.65112226  0.81135871  0.80429148    -0.47200
H1403       H  0.62244337  0.68831852  0.72483675     0.06400
C1404       C  0.84916613  0.69735277  0.79604869    -0.07300
Cl1405     Cl  0.74743412  0.75403746  0.74965077    -0.50300
C1406       C  0.83475423  0.82900649  0.83059723     0.42200
H1407       H  0.77411627  0.68844484  0.62549876     0.06400
N1408       N  0.80369029  0.69793046  0.84609611    -0.47000
C1409       C  0.63948892  0.62201628  0.66603690    -0.02300
C1410       C  0.64085263  0.65219081  0.64804523     0.07400
C1411       C  0.62292755  0.65706459  0.61040848    -0.02400
C1412       C  0.60344794  0.63185009  0.59097011    -0.02400
C1413       C  0.60165750  0.60181177  0.60922120     0.07600
C1414       C  0.61996538  0.59683558  0.64660659    -0.02600
Br1415     Br  0.61968497  0.55517955  0.67042712    -0.01100
Br1416     Br  0.66565735  0.61491200  0.71665305    -0.01200
Br1417     Br  0.57790165  0.63863589  0.53997143    -0.01200
Br1418     Br  0.62312496  0.69867835  0.58645347    -0.01100
C1419       C  0.66802611  0.62622623  0.86983422    -0.02300
C1420       C  0.64648498  0.65357655  0.85868377     0.07400
C1421       C  0.60517059  0.65544801  0.86698794    -0.02400
C1422       C  0.58565818  0.63027448  0.88656996    -0.02400
C1423       C  0.60739226  0.60328708  0.89852008     0.07600
C1424       C  0.64859314  0.60124479  0.88987744    -0.02600
Br1425     Br  0.67830156  0.56340732  0.90300670    -0.01100
Br1426     Br  0.72367555  0.62172569  0.85544278    -0.01200
Br1427     Br  0.52933810  0.63357202  0.89861807    -0.01200
Br1428     Br  0.57531288  0.69320220  0.85383476    -0.01100
C1429       C  0.57989481  0.87196506  0.60912999    -0.02300
C1430       C  0.59840610  0.90189964  0.60664042     0.07400
C1431       C  0.63676595  0.90647260  0.62310946    -0.02400
C1432       C  0.65636097  0.88124153  0.64237346    -0.02400
C1433       C  0.63771365  0.85141741  0.64512438     0.07600
C1434       C  0.59960000  0.84671418  0.62824207    -0.02600
Br1435     Br  0.57511028  0.80531437  0.62980170    -0.01100
Br1436     Br  0.52821843  0.86519655  0.58494612    -0.01200
Br1437     Br  0.70801424  0.88782322  0.66664443    -0.01200
Br1438     Br  0.66164127  0.94772639  0.62125380    -0.01100
C1439       C  0.85409886  0.59823604  0.62363911    -0.02300
C1440       C  0.89094926  0.60372175  0.60447060     0.07400
C1441       C  0.90869512  0.63396200  0.60610160    -0.02400
C1442       C  0.88912772  0.65889835  0.62600582    -0.02400
C1443       C  0.85177296  0.65359692  0.64435959     0.07600
C1444       C  0.83447626  0.62315640  0.64345777    -0.02600
Br1445     Br  0.78459744  0.61532539  0.67071054    -0.01100
Br1446     Br  0.83131032  0.55622373  0.62405729    -0.01200
Br1447     Br  0.91255766  0.70070078  0.62639054    -0.01200
Br1448     Br  0.95919175  0.64140408  0.57986667    -0.01100
C1449       C  0.89336956  0.85058449  0.86793235    -0.02300
C1450       C  0.85477726  0.85500776  0.85204545     0.07400
C1451       C  0.83532962  0.88432956  0.85659689    -0.02400
C1452       C  0.85478979  0.90946077  0.87621986    -0.02400
C1453       C  0.89369666  0.90522406  0.89152993     0.07600
C1454       C  0.91284055  0.87567241  0.88758528    -0.02600
Br1455     Br  0.96505045  0.86904032  0.91070230    -0.01100
Br1456     Br  0.91881821  0.80966857  0.86458371    -0.01200
Br1457     Br  0.82890312  0.95016750  0.88007674    -0.01200
Br1458     Br  0.78258879  0.89036160  0.83449333    -0.01100
C1459       C  0.88512398  0.63204904  0.91367160    -0.02300
C1460       C  0.89480767  0.60446273  0.89210911     0.07400
C1461       C  0.88354295  0.60181578  0.85164520    -0.02400
C1462       C  0.86379051  0.62703219  0.83249257    -0.02400
C1463       C  0.85517679  0.65507283  0.85369594     0.07600
C1464       C  0.86537952  0.65731267  0.89454424    -0.02600
Br1465     Br  0.85428574  0.69551740  0.92415998    -0.01100
Br1466     Br  0.90052062  0.63585765  0.96909663    -0.01200
Br1467     Br  0.84630048  0.62209478  0.77782216    -0.01200
Br1468     Br  0.89270664  0.56287070  0.82289619    -0.01100
C1469       C  0.63898259  0.88341609  0.83769806    -0.02300
C1470       C  0.64259253  0.85356632  0.85617374     0.07400
C1471       C  0.62597065  0.84848309  0.89434391    -0.02400
C1472       C  0.60637233  0.87334532  0.91430246    -0.02400
C1473       C  0.60345329  0.90343330  0.89620813     0.07600
C1474       C  0.61964472  0.90838440  0.85776173    -0.02600
Br1475     Br  0.61757309  0.94986749  0.83351618    -0.01100
Br1476     Br  0.66199960  0.89037341  0.78552973    -0.01200
Br1477     Br  0.58210206  0.86576055  0.96577386    -0.01200
Br1478     Br  0.62868984  0.80704314  0.91864911    -0.01100
C1479       C  0.86831077  0.84802915  0.60341565    -0.02300
C1480       C  0.84929323  0.85344615  0.64031193     0.07400
C1481       C  0.85052415  0.88370576  0.65784855    -0.02400
C1482       C  0.87013099  0.90874005  0.63812717    -0.02400
C1483       C  0.88869732  0.90345843  0.60093083     0.07600
C1484       C  0.88782724  0.87307220  0.58360569    -0.02600
Br1485     Br  0.91459214  0.86548603  0.53345104    -0.01100
Br1486     Br  0.86931175  0.80591121  0.58108318    -0.01200
Br1487     Br  0.86986374  0.95062810  0.66114914    -0.01200
Br1488     Br  0.82441763  0.89095646  0.70842482    -0.01100
loop_ 
_geom_bond_atom_site_label_1 
_geom_bond_atom_site_label_2 
_geom_bond_distance 
_geom_bond_site_symmetry_2 
_ccdc_geom_bond_type 
C1           N19   1.348       .  A
C1           C38   1.458       .  S
C1          C128   1.474       .  S
N2           N19   1.324       .  A
N2           N24   1.320       .  A
N2          Co39   2.083       .  S
C3           N28   1.341       .  A
C3           C41   1.458       .  S
C3           H48   1.082       .  S
H4           C45   1.082       .  S
C5           N29   1.340       .  A
C5            C9   1.457       .  S
C5           H34   1.082       .  S
Co6          N14   2.084       .  S
Co6         N768   2.085       .  S
Co6        N1162   2.083       .  S
Co6         N394   2.087       .  S
Co6       Cl1166   2.453       .  S
N7           C45   1.341       .  A
N7           N14   1.320       .  A
N7         Co566   2.083   1_554  S
Co8          N15   2.084       .  S
Co8         N565   2.083   1_545  S
Co8         N383   2.086   1_545  S
Co8         N214   2.088       .  S
Co8        Cl980   2.451       .  S
C9           N47   1.349       .  A
C9          C151   1.475       .  S
N10          N17   1.320       .  A
N10          N40   1.325       .  A
N10        Co415   2.085       .  S
N11          N29   1.320       .  A
N11          N47   1.325       .  A
N11        Co380   2.086       .  S
N12          C41   1.349       .  A
N12          N22   1.326       .  A
H13          C38   1.082       .  S
N14          N35   1.324       .  A
N15          N33   1.320       .  A
N15          N20   1.325       .  A
C16          N20   1.349       .  A
C16          C44   1.459       .  S
C16         C158   1.477       .  S
N17          C32   1.342       .  A
N17        Co225   2.088       .  S
C18          N46   1.341       .  A
C18          C21   1.457       .  S
C18          H52   1.082       .  S
C21          N42   1.349       .  A
C21         C111   1.473       .  S
N22          N28   1.321       .  A
N22        Co378   2.087       .  S
N23          C49   1.339       .  A
N23          N25   1.320       .  A
N23        Co597   2.081       .  S
N24          C38   1.341       .  A
N24        Co750   2.085   1_455  S
N25          N53   1.324       .  A
N25         Co43   2.084       .  S
H26          C49   1.082       .  S
H27          C44   1.082       .  S
N28        Co194   2.088   1_554  S
N29       Co1159   2.082       .  S
N30          N42   1.325       .  A
N30          N46   1.320       .  A
N30        Co411   2.087       .  S
C31          N35   1.349       .  A
C31          C45   1.457       .  S
C31         C181   1.473       .  S
C32          C51   1.459       .  S
C32          H36   1.082       .  S
N33          C44   1.340       .  A
N33        Co787   2.085       .  S
C37          N53   1.350       .  A
C37          C49   1.458       .  S
C37         C121   1.478       .  S
Co39        N203   2.088   1_554  S
Co39        N581   2.081   1_554  S
Co39        N402   2.087       .  S
Co39       Cl422   2.449   1_455  S
N40          C51   1.349       .  A
C41         C138   1.475       .  S
Co43        N382   2.085   1_545  S
Co43       N1145   2.082   1_445  S
Co43        N777   2.085   1_455  S
Co43       Cl236   2.453   1_455  S
N46       Co1122   2.083   1_455  S
Cl50      Co1122   2.453       .  S
Cl50       Co938   2.451   1_554  S
Cl50       Co411   2.449   1_655  S
Cl50       Co229   2.453   1_654  S
C51         C171   1.478       .  S
C54          N72   1.348       .  A
C54          C91   1.457       .  S
C54         C178   1.471       .  S
N55          N72   1.324       .  A
N55          N77   1.321       .  A
N55         Co92   2.083       .  S
C56          N81   1.341       .  A
C56          C94   1.457       .  S
C56         H101   1.082       .  S
H57          C98   1.082       .  S
C58          N82   1.340       .  A
C58          C62   1.457       .  S
C58          H87   1.082       .  S
Co59         N77   2.084       .  S
Co59         N67   2.089       .  S
Co59         N99   2.087       .  S
Co59         N75   2.085       .  S
Co59       Cl103   2.452       .  S
N60          C98   1.340       .  A
N60          N67   1.321       .  A
N60         Co61   2.080       .  S
Co61         N64   2.091       .  S
Co61         N81   2.084       .  S
Co61         N68   2.083       .  S
Co61       Cl103   2.450       .  S
C62         N100   1.350       .  A
C62         C168   1.476       .  S
N63          N70   1.320       .  A
N63          N93   1.325       .  A
N63         Co96   2.085       .  S
N64          N82   1.321       .  A
N64         N100   1.326       .  A
N65          C94   1.349       .  A
N65          N75   1.325       .  A
H66          C91   1.082       .  S
N67          N88   1.325       .  A
N68          N86   1.319       .  A
N68          N73   1.324       .  A
C69          N73   1.350       .  A
C69          C97   1.459       .  S
C69         C118   1.480       .  S
N70          C85   1.340       .  A
N70         Co92   2.083       .  S
C71          N99   1.341       .  A
C71          C74   1.458       .  S
C71         H105   1.082       .  S
C74          N95   1.349       .  A
C74         C141   1.477       .  S
N75          N81   1.320       .  A
N76         C102   1.340       .  A
N76          N78   1.320       .  A
N76         Co92   2.082       .  S
N77          C91   1.340       .  A
N78         N106   1.325       .  A
N78         Co96   2.086       .  S
H79         C102   1.082       .  S
H80          C97   1.082       .  S
N82         Co96   2.082       .  S
N83          N95   1.326       .  A
N83          N99   1.321       .  A
N83         Co92   2.088       .  S
C84          N88   1.349       .  A
C84          C98   1.455       .  S
C84         C131   1.472       .  S
C85         C104   1.457       .  S
C85          H89   1.082       .  S
N86          C97   1.340       .  A
N86         Co96   2.080       .  S
C90         N106   1.350       .  A
C90         C102   1.459       .  S
C90         C161   1.480       .  S
Co92       Cl103   2.452       .  S
N93         C104   1.349       .  A
C94         C108   1.475       .  S
Co96       Cl103   2.452       .  S
C104        C148   1.473       .  S
C107        C108   1.409       .  A
C107        C112   1.408       .  A
C107       Br114   1.931       .  S
C108        C109   1.411       .  A
C109        C110   1.408       .  A
C109       Br116   1.930       .  S
C110        C111   1.408       .  A
C110       Br115   1.931       .  S
C111        C112   1.409       .  A
C112       Br113   1.930       .  S
C117        C118   1.412       .  A
C117        C122   1.408       .  A
C117       Br124   1.934       .  S
C118        C119   1.413       .  A
C119        C120   1.408       .  A
C119       Br126   1.933       .  S
C120        C121   1.410       .  A
C120       Br125   1.933       .  S
C121        C122   1.412       .  A
C122       Br123   1.933       .  S
C127        C128   1.409       .  A
C127        C132   1.407       .  A
C127       Br134   1.931       .  S
C128        C129   1.411       .  A
C129        C130   1.407       .  A
C129       Br136   1.931       .  S
C130        C131   1.408       .  A
C130       Br135   1.931       .  S
C131        C132   1.410       .  A
C132       Br133   1.930       .  S
C137        C138   1.409       .  A
C137        C142   1.408       .  A
C137       Br144   1.930       .  S
C138        C139   1.409       .  A
C139        C140   1.409       .  A
C139       Br146   1.930       .  S
C140        C141   1.411       .  A
C140       Br145   1.931       .  S
C141        C142   1.409       .  A
C142       Br143   1.931       .  S
C147        C148   1.410       .  A
C147        C152   1.407       .  A
C147       Br154   1.931       .  S
C148        C149   1.408       .  A
C149        C150   1.408       .  A
C149       Br156   1.931       .  S
C150        C151   1.411       .  A
C150       Br155   1.931       .  S
C151        C152   1.410       .  A
C152       Br153   1.932       .  S
C157        C158   1.410       .  A
C157        C162   1.409       .  A
C157       Br164   1.933       .  S
C158        C159   1.411       .  A
C159        C160   1.408       .  A
C159       Br166   1.932       .  S
C160        C161   1.412       .  A
C160       Br165   1.933       .  S
C161        C162   1.413       .  A
C162       Br163   1.931       .  S
C167        C168   1.408       .  A
C167        C172   1.409       .  A
C167       Br174   1.931       .  S
C168        C169   1.410       .  A
C169        C170   1.408       .  A
C169       Br176   1.931       .  S
C170        C171   1.410       .  A
C170       Br175   1.931       .  S
C171        C172   1.412       .  A
C172       Br173   1.931       .  S
C177        C178   1.409       .  A
C177        C182   1.407       .  A
C177       Br184   1.931       .  S
C178        C179   1.408       .  A
C179        C180   1.407       .  A
C179       Br186   1.931       .  S
C180        C181   1.410       .  A
C180       Br185   1.931       .  S
C181        C182   1.409       .  A
C182       Br183   1.931       .  S
C187        N205   1.348       .  A
C187        C224   1.458       .  S
C187        C314   1.474       .  S
N188        N205   1.324       .  A
N188        N210   1.320       .  A
N188       Co225   2.083       .  S
C189        N214   1.341       .  A
C189        C227   1.458       .  S
C189        H234   1.082       .  S
H190        C231   1.082       .  S
C191        N215   1.340       .  A
C191        C195   1.457       .  S
C191        H220   1.082       .  S
Co192       N954   2.085       .  S
Co192       N200   2.084       .  S
Co192      N1348   2.083       .  S
Co192       N580   2.087       .  S
Co192     Cl1352   2.453       .  S
N193        C231   1.341       .  A
N193        N200   1.320       .  A
N193       Co380   2.083       .  S
Co194       N379   2.083   1_546  S
Co194       N569   2.086   1_545  S
Co194       N201   2.084       .  S
Co194      Cl794   2.451   1_556  S
C195        N233   1.349       .  A
C195        C337   1.475       .  S
N196        N203   1.320       .  A
N196        N226   1.325       .  A
N196       Co601   2.085       .  S
N197        N215   1.320       .  A
N197        N233   1.325       .  A
N197       Co566   2.086       .  S
N198        C227   1.349       .  A
N198        N208   1.326       .  A
H199        C224   1.082       .  S
N200        N221   1.324       .  A
N201        N219   1.320       .  A
N201        N206   1.325       .  A
C202        N206   1.349       .  A
C202        C230   1.459       .  S
C202        C344   1.477       .  S
N203        C218   1.342       .  A
C204        N232   1.341       .  A
C204        C207   1.457       .  S
C204        H238   1.082       .  S
C207        N228   1.349       .  A
C207        C297   1.473       .  S
N208        N214   1.321       .  A
N208       Co564   2.087       .  S
N209        C235   1.339       .  A
N209        N211   1.320       .  A
N209       Co411   2.081   1_556  S
N210        C224   1.341       .  A
N210       Co936   2.085   1_455  S
N211        N239   1.324       .  A
N211       Co229   2.084       .  S
H212        C235   1.082       .  S
H213        C230   1.082       .  S
N215      Co1345   2.082       .  S
N216        N228   1.325       .  A
N216        N232   1.320       .  A
N216       Co597   2.087       .  S
C217        N221   1.349       .  A
C217        C231   1.457       .  S
C217        C367   1.473       .  S
C218        C237   1.459       .  S
C218        H222   1.082       .  S
N219        C230   1.340       .  A
N219       Co973   2.085       .  S
C223        N239   1.350       .  A
C223        C235   1.458       .  S
C223        C307   1.478       .  S
Co225       N395   2.081       .  S
Co225       N588   2.087       .  S
Co225      Cl608   2.449   1_455  S
N226        C237   1.349       .  A
C227        C324   1.475       .  S
Co229       N568   2.085   1_545  S
Co229      N1331   2.082   1_445  S
Co229       N963   2.085   1_455  S
N232      Co1308   2.083   1_455  S
Cl236     Co1308   2.453       .  S
Cl236      Co752   2.451       .  S
Cl236      Co597   2.449   1_655  S
C237        C357   1.478       .  S
C240        N258   1.348       .  A
C240        C277   1.457       .  S
C240        C364   1.471       .  S
N241        N258   1.324       .  A
N241        N263   1.321       .  A
N241       Co278   2.083       .  S
C242        N267   1.341       .  A
C242        C280   1.457       .  S
C242        H287   1.082       .  S
H243        C284   1.082       .  S
C244        N268   1.340       .  A
C244        C248   1.457       .  S
C244        H273   1.082       .  S
Co245       N263   2.084       .  S
Co245       N253   2.089       .  S
Co245       N285   2.087       .  S
Co245       N261   2.085       .  S
Co245      Cl289   2.452       .  S
N246        C284   1.340       .  A
N246        N253   1.321       .  A
N246       Co247   2.080       .  S
Co247       N250   2.091       .  S
Co247       N267   2.084       .  S
Co247       N254   2.083       .  S
Co247      Cl289   2.450       .  S
C248        N286   1.350       .  A
C248        C354   1.476       .  S
N249        N256   1.320       .  A
N249        N279   1.325       .  A
N249       Co282   2.085       .  S
N250        N268   1.321       .  A
N250        N286   1.326       .  A
N251        C280   1.349       .  A
N251        N261   1.325       .  A
H252        C277   1.082       .  S
N253        N274   1.325       .  A
N254        N272   1.319       .  A
N254        N259   1.324       .  A
C255        N259   1.350       .  A
C255        C283   1.459       .  S
C255        C304   1.480       .  S
N256        C271   1.340       .  A
N256       Co278   2.083       .  S
C257        N285   1.341       .  A
C257        C260   1.458       .  S
C257        H291   1.082       .  S
C260        N281   1.349       .  A
C260        C327   1.477       .  S
N261        N267   1.320       .  A
N262        C288   1.340       .  A
N262        N264   1.320       .  A
N262       Co278   2.082       .  S
N263        C277   1.340       .  A
N264        N292   1.325       .  A
N264       Co282   2.086       .  S
H265        C288   1.082       .  S
H266        C283   1.082       .  S
N268       Co282   2.082       .  S
N269        N281   1.326       .  A
N269        N285   1.321       .  A
N269       Co278   2.088       .  S
C270        N274   1.349       .  A
C270        C284   1.455       .  S
C270        C317   1.472       .  S
C271        C290   1.457       .  S
C271        H275   1.082       .  S
N272        C283   1.340       .  A
N272       Co282   2.080       .  S
C276        N292   1.350       .  A
C276        C288   1.459       .  S
C276        C347   1.480       .  S
Co278      Cl289   2.452       .  S
N279        C290   1.349       .  A
C280        C294   1.475       .  S
Co282      Cl289   2.452       .  S
C290        C334   1.473       .  S
C293        C294   1.409       .  A
C293        C298   1.408       .  A
C293       Br300   1.931       .  S
C294        C295   1.411       .  A
C295        C296   1.408       .  A
C295       Br302   1.930       .  S
C296        C297   1.408       .  A
C296       Br301   1.931       .  S
C297        C298   1.409       .  A
C298       Br299   1.930       .  S
C303        C304   1.412       .  A
C303        C308   1.408       .  A
C303       Br310   1.934       .  S
C304        C305   1.413       .  A
C305        C306   1.408       .  A
C305       Br312   1.933       .  S
C306        C307   1.410       .  A
C306       Br311   1.933       .  S
C307        C308   1.412       .  A
C308       Br309   1.933       .  S
C313        C314   1.409       .  A
C313        C318   1.407       .  A
C313       Br320   1.931       .  S
C314        C315   1.411       .  A
C315        C316   1.407       .  A
C315       Br322   1.931       .  S
C316        C317   1.408       .  A
C316       Br321   1.931       .  S
C317        C318   1.410       .  A
C318       Br319   1.930       .  S
C323        C324   1.409       .  A
C323        C328   1.408       .  A
C323       Br330   1.930       .  S
C324        C325   1.409       .  A
C325        C326   1.409       .  A
C325       Br332   1.930       .  S
C326        C327   1.411       .  A
C326       Br331   1.931       .  S
C327        C328   1.409       .  A
C328       Br329   1.931       .  S
C333        C334   1.410       .  A
C333        C338   1.407       .  A
C333       Br340   1.931       .  S
C334        C335   1.408       .  A
C335        C336   1.408       .  A
C335       Br342   1.931       .  S
C336        C337   1.411       .  A
C336       Br341   1.931       .  S
C337        C338   1.410       .  A
C338       Br339   1.932       .  S
C343        C344   1.410       .  A
C343        C348   1.409       .  A
C343       Br350   1.933       .  S
C344        C345   1.411       .  A
C345        C346   1.408       .  A
C345       Br352   1.932       .  S
C346        C347   1.412       .  A
C346       Br351   1.933       .  S
C347        C348   1.413       .  A
C348       Br349   1.931       .  S
C353        C354   1.408       .  A
C353        C358   1.409       .  A
C353       Br360   1.931       .  S
C354        C355   1.410       .  A
C355        C356   1.408       .  A
C355       Br362   1.931       .  S
C356        C357   1.410       .  A
C356       Br361   1.931       .  S
C357        C358   1.412       .  A
C358       Br359   1.931       .  S
C363        C364   1.409       .  A
C363        C368   1.407       .  A
C363       Br370   1.931       .  S
C364        C365   1.408       .  A
C365        C366   1.407       .  A
C365       Br372   1.931       .  S
C366        C367   1.410       .  A
C366       Br371   1.931       .  S
C367        C368   1.409       .  A
C368       Br369   1.931       .  S
C373        N391   1.348       .  A
C373        C410   1.458       .  S
C373        C500   1.474       .  S
N374        N391   1.324       .  A
N374        N396   1.320       .  A
N374       Co411   2.083   1_565  S
C375        N400   1.341       .  A
C375        C413   1.458       .  S
C375        H420   1.082       .  S
H376        C417   1.082       .  S
C377        N401   1.340       .  A
C377        C381   1.457       .  S
C377        H406   1.082       .  S
Co378      N1140   2.085   1_545  S
Co378       N386   2.084   1_545  S
Co378       N790   2.083       .  S
Co378      Cl794   2.453       .  S
N379        C417   1.341       .  A
N379        N386   1.320       .  A
Co380       N586   2.088       .  S
Co380       N387   2.084       .  S
Co380     Cl1352   2.451       .  S
C381        N419   1.349       .  A
C381        C523   1.475       .  S
N382        N389   1.320       .  A
N382        N412   1.325       .  A
N383        N401   1.320       .  A
N383        N419   1.325       .  A
N384        C413   1.349       .  A
N384        N394   1.326       .  A
H385        C410   1.082       .  S
N386        N407   1.324       .  A
N387        N405   1.320       .  A
N387        N392   1.325       .  A
C388        N392   1.349       .  A
C388        C416   1.459       .  S
C388        C530   1.477       .  S
N389        C404   1.342       .  A
N389       Co597   2.088   1_565  S
C390        N418   1.341       .  A
C390        C393   1.457       .  S
C390        H424   1.082       .  S
C393        N414   1.349       .  A
C393        C483   1.473       .  S
N394        N400   1.321       .  A
N395        C421   1.339       .  A
N395        N397   1.320       .  A
N396        C410   1.341       .  A
N396      Co1122   2.085   1_465  S
N397        N425   1.324       .  A
N397       Co415   2.084       .  S
H398        C421   1.082       .  S
H399        C416   1.082       .  S
N400       Co566   2.088   1_554  S
N401       Co787   2.082   1_565  S
N402        N414   1.325       .  A
N402        N418   1.320       .  A
C403        N407   1.349       .  A
C403        C417   1.457       .  S
C403        C553   1.473       .  S
C404        C423   1.459       .  S
C404        H408   1.082       .  S
N405        C416   1.340       .  A
N405      Co1159   2.085       .  S
C409        N425   1.350       .  A
C409        C421   1.458       .  S
C409        C493   1.478       .  S
Co411       N575   2.088   1_544  S
N412        C423   1.349       .  A
C413        C510   1.475       .  S
Co415       N773   2.082   1_455  S
Co415      N1149   2.085   1_455  S
Co415      Cl608   2.453   1_455  S
N418       Co750   2.083   1_455  S
Cl422      Co750   2.453       .  S
Cl422     Co1310   2.451   1_554  S
Cl422      Co601   2.453   1_654  S
C423        C543   1.478       .  S
C426        N444   1.348       .  A
C426        C463   1.457       .  S
C426        C550   1.471       .  S
N427        N444   1.324       .  A
N427        N449   1.321       .  A
N427       Co464   2.083       .  S
C428        N453   1.341       .  A
C428        C466   1.457       .  S
C428        H473   1.082       .  S
H429        C470   1.082       .  S
C430        N454   1.340       .  A
C430        C434   1.457       .  S
C430        H459   1.082       .  S
Co431       N449   2.084       .  S
Co431       N439   2.089       .  S
Co431       N471   2.087       .  S
Co431       N447   2.085       .  S
Co431      Cl475   2.452       .  S
N432        C470   1.340       .  A
N432        N439   1.321       .  A
N432       Co433   2.080       .  S
Co433       N436   2.091       .  S
Co433       N453   2.084       .  S
Co433       N440   2.083       .  S
Co433      Cl475   2.450       .  S
C434        N472   1.350       .  A
C434        C540   1.476       .  S
N435        N442   1.320       .  A
N435        N465   1.325       .  A
N435       Co468   2.085       .  S
N436        N454   1.321       .  A
N436        N472   1.326       .  A
N437        C466   1.349       .  A
N437        N447   1.325       .  A
H438        C463   1.082       .  S
N439        N460   1.325       .  A
N440        N458   1.319       .  A
N440        N445   1.324       .  A
C441        N445   1.350       .  A
C441        C469   1.459       .  S
C441        C490   1.480       .  S
N442        C457   1.340       .  A
N442       Co464   2.083       .  S
C443        N471   1.341       .  A
C443        C446   1.458       .  S
C443        H477   1.082       .  S
C446        N467   1.349       .  A
C446        C513   1.477       .  S
N447        N453   1.320       .  A
N448        C474   1.340       .  A
N448        N450   1.320       .  A
N448       Co464   2.082       .  S
N449        C463   1.340       .  A
N450        N478   1.325       .  A
N450       Co468   2.086       .  S
H451        C474   1.082       .  S
H452        C469   1.082       .  S
N454       Co468   2.082       .  S
N455        N467   1.326       .  A
N455        N471   1.321       .  A
N455       Co464   2.088       .  S
C456        N460   1.349       .  A
C456        C470   1.455       .  S
C456        C503   1.472       .  S
C457        C476   1.457       .  S
C457        H461   1.082       .  S
N458        C469   1.340       .  A
N458       Co468   2.080       .  S
C462        N478   1.350       .  A
C462        C474   1.459       .  S
C462        C533   1.480       .  S
Co464      Cl475   2.452       .  S
N465        C476   1.349       .  A
C466        C480   1.475       .  S
Co468      Cl475   2.452       .  S
C476        C520   1.473       .  S
C479        C480   1.409       .  A
C479        C484   1.408       .  A
C479       Br486   1.931       .  S
C480        C481   1.411       .  A
C481        C482   1.408       .  A
C481       Br488   1.930       .  S
C482        C483   1.408       .  A
C482       Br487   1.931       .  S
C483        C484   1.409       .  A
C484       Br485   1.930       .  S
C489        C490   1.412       .  A
C489        C494   1.408       .  A
C489       Br496   1.934       .  S
C490        C491   1.413       .  A
C491        C492   1.408       .  A
C491       Br498   1.933       .  S
C492        C493   1.410       .  A
C492       Br497   1.933       .  S
C493        C494   1.412       .  A
C494       Br495   1.933       .  S
C499        C500   1.409       .  A
C499        C504   1.407       .  A
C499       Br506   1.931       .  S
C500        C501   1.411       .  A
C501        C502   1.407       .  A
C501       Br508   1.931       .  S
C502        C503   1.408       .  A
C502       Br507   1.931       .  S
C503        C504   1.410       .  A
C504       Br505   1.930       .  S
C509        C510   1.409       .  A
C509        C514   1.408       .  A
C509       Br516   1.930       .  S
C510        C511   1.409       .  A
C511        C512   1.409       .  A
C511       Br518   1.930       .  S
C512        C513   1.411       .  A
C512       Br517   1.931       .  S
C513        C514   1.409       .  A
C514       Br515   1.931       .  S
C519        C520   1.410       .  A
C519        C524   1.407       .  A
C519       Br526   1.931       .  S
C520        C521   1.408       .  A
C521        C522   1.408       .  A
C521       Br528   1.931       .  S
C522        C523   1.411       .  A
C522       Br527   1.931       .  S
C523        C524   1.410       .  A
C524       Br525   1.932       .  S
C529        C530   1.410       .  A
C529        C534   1.409       .  A
C529       Br536   1.933       .  S
C530        C531   1.411       .  A
C531        C532   1.408       .  A
C531       Br538   1.932       .  S
C532        C533   1.412       .  A
C532       Br537   1.933       .  S
C533        C534   1.413       .  A
C534       Br535   1.931       .  S
C539        C540   1.408       .  A
C539        C544   1.409       .  A
C539       Br546   1.931       .  S
C540        C541   1.410       .  A
C541        C542   1.408       .  A
C541       Br548   1.931       .  S
C542        C543   1.410       .  A
C542       Br547   1.931       .  S
C543        C544   1.412       .  A
C544       Br545   1.931       .  S
C549        C550   1.409       .  A
C549        C554   1.407       .  A
C549       Br556   1.931       .  S
C550        C551   1.408       .  A
C551        C552   1.407       .  A
C551       Br558   1.931       .  S
C552        C553   1.410       .  A
C552       Br557   1.931       .  S
C553        C554   1.409       .  A
C554       Br555   1.931       .  S
C559        N577   1.348       .  A
C559        C596   1.458       .  S
C559        C686   1.474       .  S
N560        N577   1.324       .  A
N560        N582   1.320       .  A
N560       Co597   2.083   1_565  S
C561        N586   1.341       .  A
C561        C599   1.458       .  S
C561        H606   1.082       .  S
H562        C603   1.082       .  S
C563        N587   1.340       .  A
C563        C567   1.457       .  S
C563        H592   1.082       .  S
Co564      N1326   2.085   1_545  S
Co564       N572   2.084   1_545  S
Co564       N976   2.083       .  S
Co564      Cl980   2.453       .  S
N565        C603   1.341       .  A
N565        N572   1.320       .  A
Co566       N573   2.084       .  S
Co566     Cl1166   2.451   1_556  S
C567        N605   1.349       .  A
C567        C709   1.475       .  S
N568        N575   1.320       .  A
N568        N598   1.325       .  A
N569        N587   1.320       .  A
N569        N605   1.325       .  A
N570        C599   1.349       .  A
N570        N580   1.326       .  A
H571        C596   1.082       .  S
N572        N593   1.324       .  A
N573        N591   1.320       .  A
N573        N578   1.325       .  A
C574        N578   1.349       .  A
C574        C602   1.459       .  S
C574        C716   1.477       .  S
N575        C590   1.342       .  A
C576        N604   1.341       .  A
C576        C579   1.457       .  S
C576        H610   1.082       .  S
C579        N600   1.349       .  A
C579        C669   1.473       .  S
N580        N586   1.321       .  A
N581        C607   1.339       .  A
N581        N583   1.320       .  A
N582        C596   1.341       .  A
N582      Co1308   2.085   1_465  S
N583        N611   1.324       .  A
N583       Co601   2.084       .  S
H584        C607   1.082       .  S
H585        C602   1.082       .  S
N587       Co973   2.082   1_565  S
N588        N600   1.325       .  A
N588        N604   1.320       .  A
C589        N593   1.349       .  A
C589        C603   1.457       .  S
C589        C739   1.473       .  S
C590        C609   1.459       .  S
C590        H594   1.082       .  S
N591        C602   1.340       .  A
N591      Co1345   2.085       .  S
C595        N611   1.350       .  A
C595        C607   1.458       .  S
C595        C679   1.478       .  S
N598        C609   1.349       .  A
C599        C696   1.475       .  S
Co601       N959   2.082   1_455  S
Co601      N1335   2.085   1_455  S
N604       Co936   2.083   1_455  S
Cl608      Co936   2.453       .  S
Cl608     Co1124   2.451       .  S
C609        C729   1.478       .  S
C612        N630   1.348       .  A
C612        C649   1.457       .  S
C612        C736   1.471       .  S
N613        N630   1.324       .  A
N613        N635   1.321       .  A
N613       Co650   2.083       .  S
C614        N639   1.341       .  A
C614        C652   1.457       .  S
C614        H659   1.082       .  S
H615        C656   1.082       .  S
C616        N640   1.340       .  A
C616        C620   1.457       .  S
C616        H645   1.082       .  S
Co617       N635   2.084       .  S
Co617       N625   2.089       .  S
Co617       N657   2.087       .  S
Co617       N633   2.085       .  S
Co617      Cl661   2.452       .  S
N618        C656   1.340       .  A
N618        N625   1.321       .  A
N618       Co619   2.080       .  S
Co619       N622   2.091       .  S
Co619       N639   2.084       .  S
Co619       N626   2.083       .  S
Co619      Cl661   2.450       .  S
C620        N658   1.350       .  A
C620        C726   1.476       .  S
N621        N628   1.320       .  A
N621        N651   1.325       .  A
N621       Co654   2.085       .  S
N622        N640   1.321       .  A
N622        N658   1.326       .  A
N623        C652   1.349       .  A
N623        N633   1.325       .  A
H624        C649   1.082       .  S
N625        N646   1.325       .  A
N626        N644   1.319       .  A
N626        N631   1.324       .  A
C627        N631   1.350       .  A
C627        C655   1.459       .  S
C627        C676   1.480       .  S
N628        C643   1.340       .  A
N628       Co650   2.083       .  S
C629        N657   1.341       .  A
C629        C632   1.458       .  S
C629        H663   1.082       .  S
C632        N653   1.349       .  A
C632        C699   1.477       .  S
N633        N639   1.320       .  A
N634        C660   1.340       .  A
N634        N636   1.320       .  A
N634       Co650   2.082       .  S
N635        C649   1.340       .  A
N636        N664   1.325       .  A
N636       Co654   2.086       .  S
H637        C660   1.082       .  S
H638        C655   1.082       .  S
N640       Co654   2.082       .  S
N641        N653   1.326       .  A
N641        N657   1.321       .  A
N641       Co650   2.088       .  S
C642        N646   1.349       .  A
C642        C656   1.455       .  S
C642        C689   1.472       .  S
C643        C662   1.457       .  S
C643        H647   1.082       .  S
N644        C655   1.340       .  A
N644       Co654   2.080       .  S
C648        N664   1.350       .  A
C648        C660   1.459       .  S
C648        C719   1.480       .  S
Co650      Cl661   2.452       .  S
N651        C662   1.349       .  A
C652        C666   1.475       .  S
Co654      Cl661   2.452       .  S
C662        C706   1.473       .  S
C665        C666   1.409       .  A
C665        C670   1.408       .  A
C665       Br672   1.931       .  S
C666        C667   1.411       .  A
C667        C668   1.408       .  A
C667       Br674   1.930       .  S
C668        C669   1.408       .  A
C668       Br673   1.931       .  S
C669        C670   1.409       .  A
C670       Br671   1.930       .  S
C675        C676   1.412       .  A
C675        C680   1.408       .  A
C675       Br682   1.934       .  S
C676        C677   1.413       .  A
C677        C678   1.408       .  A
C677       Br684   1.933       .  S
C678        C679   1.410       .  A
C678       Br683   1.933       .  S
C679        C680   1.412       .  A
C680       Br681   1.933       .  S
C685        C686   1.409       .  A
C685        C690   1.407       .  A
C685       Br692   1.931       .  S
C686        C687   1.411       .  A
C687        C688   1.407       .  A
C687       Br694   1.931       .  S
C688        C689   1.408       .  A
C688       Br693   1.931       .  S
C689        C690   1.410       .  A
C690       Br691   1.930       .  S
C695        C696   1.409       .  A
C695        C700   1.408       .  A
C695       Br702   1.930       .  S
C696        C697   1.409       .  A
C697        C698   1.409       .  A
C697       Br704   1.930       .  S
C698        C699   1.411       .  A
C698       Br703   1.931       .  S
C699        C700   1.409       .  A
C700       Br701   1.931       .  S
C705        C706   1.410       .  A
C705        C710   1.407       .  A
C705       Br712   1.931       .  S
C706        C707   1.408       .  A
C707        C708   1.408       .  A
C707       Br714   1.931       .  S
C708        C709   1.411       .  A
C708       Br713   1.931       .  S
C709        C710   1.410       .  A
C710       Br711   1.932       .  S
C715        C716   1.410       .  A
C715        C720   1.409       .  A
C715       Br722   1.933       .  S
C716        C717   1.411       .  A
C717        C718   1.408       .  A
C717       Br724   1.932       .  S
C718        C719   1.412       .  A
C718       Br723   1.933       .  S
C719        C720   1.413       .  A
C720       Br721   1.931       .  S
C725        C726   1.408       .  A
C725        C730   1.409       .  A
C725       Br732   1.931       .  S
C726        C727   1.410       .  A
C727        C728   1.408       .  A
C727       Br734   1.931       .  S
C728        C729   1.410       .  A
C728       Br733   1.931       .  S
C729        C730   1.412       .  A
C730       Br731   1.931       .  S
C735        C736   1.409       .  A
C735        C740   1.407       .  A
C735       Br742   1.931       .  S
C736        C737   1.408       .  A
C737        C738   1.407       .  A
C737       Br744   1.931       .  S
C738        C739   1.410       .  A
C738       Br743   1.931       .  S
C739        C740   1.409       .  A
C740       Br741   1.931       .  S
C745        N763   1.348       .  A
C745        C782   1.458       .  S
C745        C872   1.474       .  S
N746        N763   1.324       .  A
N746        N768   1.320       .  A
N746       Co783   2.083       .  S
C747        N772   1.341       .  A
C747        C785   1.458       .  S
C747        H792   1.082       .  S
H748        C789   1.082       .  S
C749        N773   1.340       .  A
C749        C753   1.457       .  S
C749        H778   1.082       .  S
Co750       N758   2.084       .  S
Co750      N1138   2.087       .  S
N751        C789   1.341       .  A
N751        N758   1.320       .  A
N751      Co1310   2.083   1_554  S
Co752      N1309   2.083   1_545  S
Co752      N1127   2.086   1_545  S
Co752       N958   2.088       .  S
Co752       N759   2.084       .  S
C753        N791   1.349       .  A
C753        C895   1.475       .  S
N754        N761   1.320       .  A
N754        N784   1.325       .  A
N754      Co1159   2.085       .  S
N755        N773   1.320       .  A
N755        N791   1.325       .  A
N755      Co1124   2.086       .  S
N756        C785   1.349       .  A
N756        N766   1.326       .  A
H757        C782   1.082       .  S
N758        N779   1.324       .  A
N759        N777   1.320       .  A
N759        N764   1.325       .  A
C760        N764   1.349       .  A
C760        C788   1.459       .  S
C760        C902   1.477       .  S
N761        C776   1.342       .  A
N761       Co969   2.088       .  S
C762        N790   1.341       .  A
C762        C765   1.457       .  S
C762        H796   1.082       .  S
C765        N786   1.349       .  A
C765        C855   1.473       .  S
N766        N772   1.321       .  A
N766      Co1122   2.087       .  S
N767        C793   1.339       .  A
N767        N769   1.320       .  A
N767      Co1341   2.081       .  S
N768        C782   1.341       .  A
N769        N797   1.324       .  A
N769       Co787   2.084       .  S
H770        C793   1.082       .  S
H771        C788   1.082       .  S
N772       Co938   2.088   1_554  S
N774        N786   1.325       .  A
N774        N790   1.320       .  A
N774      Co1155   2.087       .  S
C775        N779   1.349       .  A
C775        C789   1.457       .  S
C775        C925   1.473       .  S
C776        C795   1.459       .  S
C776        H780   1.082       .  S
N777        C788   1.340       .  A
C781        N797   1.350       .  A
C781        C793   1.458       .  S
C781        C865   1.478       .  S
Co783       N947   2.088   1_554  S
Co783      N1325   2.081   1_554  S
Co783      N1146   2.087       .  S
Co783     Cl1166   2.449       .  S
N784        C795   1.349       .  A
C785        C882   1.475       .  S
Co787      N1126   2.085   1_545  S
Co787      Cl980   2.453       .  S
Cl794     Co1155   2.449       .  S
Cl794      Co973   2.453   1_554  S
C795        C915   1.478       .  S
C798        N816   1.348       .  A
C798        C835   1.457       .  S
C798        C922   1.471       .  S
N799        N816   1.324       .  A
N799        N821   1.321       .  A
N799       Co836   2.083       .  S
C800        N825   1.341       .  A
C800        C838   1.457       .  S
C800        H845   1.082       .  S
H801        C842   1.082       .  S
C802        N826   1.340       .  A
C802        C806   1.457       .  S
C802        H831   1.082       .  S
Co803       N821   2.084       .  S
Co803       N811   2.089       .  S
Co803       N843   2.087       .  S
Co803       N819   2.085       .  S
Co803      Cl847   2.452       .  S
N804        C842   1.340       .  A
N804        N811   1.321       .  A
N804       Co805   2.080       .  S
Co805       N808   2.091       .  S
Co805       N825   2.084       .  S
Co805       N812   2.083       .  S
Co805      Cl847   2.450       .  S
C806        N844   1.350       .  A
C806        C912   1.476       .  S
N807        N814   1.320       .  A
N807        N837   1.325       .  A
N807       Co840   2.085       .  S
N808        N826   1.321       .  A
N808        N844   1.326       .  A
N809        C838   1.349       .  A
N809        N819   1.325       .  A
H810        C835   1.082       .  S
N811        N832   1.325       .  A
N812        N830   1.319       .  A
N812        N817   1.324       .  A
C813        N817   1.350       .  A
C813        C841   1.459       .  S
C813        C862   1.480       .  S
N814        C829   1.340       .  A
N814       Co836   2.083       .  S
C815        N843   1.341       .  A
C815        C818   1.458       .  S
C815        H849   1.082       .  S
C818        N839   1.349       .  A
C818        C885   1.477       .  S
N819        N825   1.320       .  A
N820        C846   1.340       .  A
N820        N822   1.320       .  A
N820       Co836   2.082       .  S
N821        C835   1.340       .  A
N822        N850   1.325       .  A
N822       Co840   2.086       .  S
H823        C846   1.082       .  S
H824        C841   1.082       .  S
N826       Co840   2.082       .  S
N827        N839   1.326       .  A
N827        N843   1.321       .  A
N827       Co836   2.088       .  S
C828        N832   1.349       .  A
C828        C842   1.455       .  S
C828        C875   1.472       .  S
C829        C848   1.457       .  S
C829        H833   1.082       .  S
N830        C841   1.340       .  A
N830       Co840   2.080       .  S
C834        N850   1.350       .  A
C834        C846   1.459       .  S
C834        C905   1.480       .  S
Co836      Cl847   2.452       .  S
N837        C848   1.349       .  A
C838        C852   1.475       .  S
Co840      Cl847   2.452       .  S
C848        C892   1.473       .  S
C851        C852   1.409       .  A
C851        C856   1.408       .  A
C851       Br858   1.931       .  S
C852        C853   1.411       .  A
C853        C854   1.408       .  A
C853       Br860   1.930       .  S
C854        C855   1.408       .  A
C854       Br859   1.931       .  S
C855        C856   1.409       .  A
C856       Br857   1.930       .  S
C861        C862   1.412       .  A
C861        C866   1.408       .  A
C861       Br868   1.934       .  S
C862        C863   1.413       .  A
C863        C864   1.408       .  A
C863       Br870   1.933       .  S
C864        C865   1.410       .  A
C864       Br869   1.933       .  S
C865        C866   1.412       .  A
C866       Br867   1.933       .  S
C871        C872   1.409       .  A
C871        C876   1.407       .  A
C871       Br878   1.931       .  S
C872        C873   1.411       .  A
C873        C874   1.407       .  A
C873       Br880   1.931       .  S
C874        C875   1.408       .  A
C874       Br879   1.931       .  S
C875        C876   1.410       .  A
C876       Br877   1.930       .  S
C881        C882   1.409       .  A
C881        C886   1.408       .  A
C881       Br888   1.930       .  S
C882        C883   1.409       .  A
C883        C884   1.409       .  A
C883       Br890   1.930       .  S
C884        C885   1.411       .  A
C884       Br889   1.931       .  S
C885        C886   1.409       .  A
C886       Br887   1.931       .  S
C891        C892   1.410       .  A
C891        C896   1.407       .  A
C891       Br898   1.931       .  S
C892        C893   1.408       .  A
C893        C894   1.408       .  A
C893       Br900   1.931       .  S
C894        C895   1.411       .  A
C894       Br899   1.931       .  S
C895        C896   1.410       .  A
C896       Br897   1.932       .  S
C901        C902   1.410       .  A
C901        C906   1.409       .  A
C901       Br908   1.933       .  S
C902        C903   1.411       .  A
C903        C904   1.408       .  A
C903       Br910   1.932       .  S
C904        C905   1.412       .  A
C904       Br909   1.933       .  S
C905        C906   1.413       .  A
C906       Br907   1.931       .  S
C911        C912   1.408       .  A
C911        C916   1.409       .  A
C911       Br918   1.931       .  S
C912        C913   1.410       .  A
C913        C914   1.408       .  A
C913       Br920   1.931       .  S
C914        C915   1.410       .  A
C914       Br919   1.931       .  S
C915        C916   1.412       .  A
C916       Br917   1.931       .  S
C921        C922   1.409       .  A
C921        C926   1.407       .  A
C921       Br928   1.931       .  S
C922        C923   1.408       .  A
C923        C924   1.407       .  A
C923       Br930   1.931       .  S
C924        C925   1.410       .  A
C924       Br929   1.931       .  S
C925        C926   1.409       .  A
C926       Br927   1.931       .  S
C931        N949   1.348       .  A
C931        C968   1.458       .  S
C931       C1058   1.474       .  S
N932        N949   1.324       .  A
N932        N954   1.320       .  A
N932       Co969   2.083       .  S
C933        N958   1.341       .  A
C933        C971   1.458       .  S
C933        H978   1.082       .  S
H934        C975   1.082       .  S
C935        N959   1.340       .  A
C935        C939   1.457       .  S
C935        H964   1.082       .  S
Co936       N944   2.084       .  S
Co936      N1324   2.087       .  S
N937        C975   1.341       .  A
N937        N944   1.320       .  A
N937      Co1124   2.083       .  S
Co938      N1123   2.083   1_546  S
Co938      N1313   2.086   1_545  S
Co938       N945   2.084       .  S
C939        N977   1.349       .  A
C939       C1081   1.475       .  S
N940        N947   1.320       .  A
N940        N970   1.325       .  A
N940      Co1345   2.085       .  S
N941        N959   1.320       .  A
N941        N977   1.325       .  A
N941      Co1310   2.086       .  S
N942        C971   1.349       .  A
N942        N952   1.326       .  A
H943        C968   1.082       .  S
N944        N965   1.324       .  A
N945        N963   1.320       .  A
N945        N950   1.325       .  A
C946        N950   1.349       .  A
C946        C974   1.459       .  S
C946       C1088   1.477       .  S
N947        C962   1.342       .  A
C948        N976   1.341       .  A
C948        C951   1.457       .  S
C948        H982   1.082       .  S
C951        N972   1.349       .  A
C951       C1041   1.473       .  S
N952        N958   1.321       .  A
N952      Co1308   2.087       .  S
N953        C979   1.339       .  A
N953        N955   1.320       .  A
N953      Co1155   2.081   1_556  S
N954        C968   1.341       .  A
N955        N983   1.324       .  A
N955       Co973   2.084       .  S
H956        C979   1.082       .  S
H957        C974   1.082       .  S
N960        N972   1.325       .  A
N960        N976   1.320       .  A
N960      Co1341   2.087       .  S
C961        N965   1.349       .  A
C961        C975   1.457       .  S
C961       C1111   1.473       .  S
C962        C981   1.459       .  S
C962        H966   1.082       .  S
N963        C974   1.340       .  A
C967        N983   1.350       .  A
C967        C979   1.458       .  S
C967       C1051   1.478       .  S
Co969      N1139   2.081       .  S
Co969      N1332   2.087       .  S
Co969     Cl1352   2.449       .  S
N970        C981   1.349       .  A
C971       C1068   1.475       .  S
Co973      N1312   2.085   1_545  S
Cl980     Co1341   2.449       .  S
C981       C1101   1.478       .  S
C984       N1002   1.348       .  A
C984       C1021   1.457       .  S
C984       C1108   1.471       .  S
N985       N1002   1.324       .  A
N985       N1007   1.321       .  A
N985      Co1022   2.083       .  S
C986       N1011   1.341       .  A
C986       C1024   1.457       .  S
C986       H1031   1.082       .  S
H987       C1028   1.082       .  S
C988       N1012   1.340       .  A
C988        C992   1.457       .  S
C988       H1017   1.082       .  S
Co989      N1007   2.084       .  S
Co989       N997   2.089       .  S
Co989      N1029   2.087       .  S
Co989      N1005   2.085       .  S
Co989     Cl1033   2.452       .  S
N990       C1028   1.340       .  A
N990        N997   1.321       .  A
N990       Co991   2.080       .  S
Co991       N994   2.091       .  S
Co991      N1011   2.084       .  S
Co991       N998   2.083       .  S
Co991     Cl1033   2.450       .  S
C992       N1030   1.350       .  A
C992       C1098   1.476       .  S
N993       N1000   1.320       .  A
N993       N1023   1.325       .  A
N993      Co1026   2.085       .  S
N994       N1012   1.321       .  A
N994       N1030   1.326       .  A
N995       C1024   1.349       .  A
N995       N1005   1.325       .  A
H996       C1021   1.082       .  S
N997       N1018   1.325       .  A
N998       N1016   1.319       .  A
N998       N1003   1.324       .  A
C999       N1003   1.350       .  A
C999       C1027   1.459       .  S
C999       C1048   1.480       .  S
N1000      C1015   1.340       .  A
N1000     Co1022   2.083       .  S
C1001      N1029   1.341       .  A
C1001      C1004   1.458       .  S
C1001      H1035   1.082       .  S
C1004      N1025   1.349       .  A
C1004      C1071   1.477       .  S
N1005      N1011   1.320       .  A
N1006      C1032   1.340       .  A
N1006      N1008   1.320       .  A
N1006     Co1022   2.082       .  S
N1007      C1021   1.340       .  A
N1008      N1036   1.325       .  A
N1008     Co1026   2.086       .  S
H1009      C1032   1.082       .  S
H1010      C1027   1.082       .  S
N1012     Co1026   2.082       .  S
N1013      N1025   1.326       .  A
N1013      N1029   1.321       .  A
N1013     Co1022   2.088       .  S
C1014      N1018   1.349       .  A
C1014      C1028   1.455       .  S
C1014      C1061   1.472       .  S
C1015      C1034   1.457       .  S
C1015      H1019   1.082       .  S
N1016      C1027   1.340       .  A
N1016     Co1026   2.080       .  S
C1020      N1036   1.350       .  A
C1020      C1032   1.459       .  S
C1020      C1091   1.480       .  S
Co1022    Cl1033   2.452       .  S
N1023      C1034   1.349       .  A
C1024      C1038   1.475       .  S
Co1026    Cl1033   2.452       .  S
C1034      C1078   1.473       .  S
C1037      C1038   1.409       .  A
C1037      C1042   1.408       .  A
C1037     Br1044   1.931       .  S
C1038      C1039   1.411       .  A
C1039      C1040   1.408       .  A
C1039     Br1046   1.930       .  S
C1040      C1041   1.408       .  A
C1040     Br1045   1.931       .  S
C1041      C1042   1.409       .  A
C1042     Br1043   1.930       .  S
C1047      C1048   1.412       .  A
C1047      C1052   1.408       .  A
C1047     Br1054   1.934       .  S
C1048      C1049   1.413       .  A
C1049      C1050   1.408       .  A
C1049     Br1056   1.933       .  S
C1050      C1051   1.410       .  A
C1050     Br1055   1.933       .  S
C1051      C1052   1.412       .  A
C1052     Br1053   1.933       .  S
C1057      C1058   1.409       .  A
C1057      C1062   1.407       .  A
C1057     Br1064   1.931       .  S
C1058      C1059   1.411       .  A
C1059      C1060   1.407       .  A
C1059     Br1066   1.931       .  S
C1060      C1061   1.408       .  A
C1060     Br1065   1.931       .  S
C1061      C1062   1.410       .  A
C1062     Br1063   1.930       .  S
C1067      C1068   1.409       .  A
C1067      C1072   1.408       .  A
C1067     Br1074   1.930       .  S
C1068      C1069   1.409       .  A
C1069      C1070   1.409       .  A
C1069     Br1076   1.930       .  S
C1070      C1071   1.411       .  A
C1070     Br1075   1.931       .  S
C1071      C1072   1.409       .  A
C1072     Br1073   1.931       .  S
C1077      C1078   1.410       .  A
C1077      C1082   1.407       .  A
C1077     Br1084   1.931       .  S
C1078      C1079   1.408       .  A
C1079      C1080   1.408       .  A
C1079     Br1086   1.931       .  S
C1080      C1081   1.411       .  A
C1080     Br1085   1.931       .  S
C1081      C1082   1.410       .  A
C1082     Br1083   1.932       .  S
C1087      C1088   1.410       .  A
C1087      C1092   1.409       .  A
C1087     Br1094   1.933       .  S
C1088      C1089   1.411       .  A
C1089      C1090   1.408       .  A
C1089     Br1096   1.932       .  S
C1090      C1091   1.412       .  A
C1090     Br1095   1.933       .  S
C1091      C1092   1.413       .  A
C1092     Br1093   1.931       .  S
C1097      C1098   1.408       .  A
C1097      C1102   1.409       .  A
C1097     Br1104   1.931       .  S
C1098      C1099   1.410       .  A
C1099      C1100   1.408       .  A
C1099     Br1106   1.931       .  S
C1100      C1101   1.410       .  A
C1100     Br1105   1.931       .  S
C1101      C1102   1.412       .  A
C1102     Br1103   1.931       .  S
C1107      C1108   1.409       .  A
C1107      C1112   1.407       .  A
C1107     Br1114   1.931       .  S
C1108      C1109   1.408       .  A
C1109      C1110   1.407       .  A
C1109     Br1116   1.931       .  S
C1110      C1111   1.410       .  A
C1110     Br1115   1.931       .  S
C1111      C1112   1.409       .  A
C1112     Br1113   1.931       .  S
C1117      N1135   1.348       .  A
C1117      C1154   1.458       .  S
C1117      C1244   1.474       .  S
N1118      N1135   1.324       .  A
N1118      N1140   1.320       .  A
N1118     Co1155   2.083   1_565  S
C1119      N1144   1.341       .  A
C1119      C1157   1.458       .  S
C1119      H1164   1.082       .  S
H1120      C1161   1.082       .  S
C1121      N1145   1.340       .  A
C1121      C1125   1.457       .  S
C1121      H1150   1.082       .  S
Co1122     N1130   2.084   1_545  S
N1123      C1161   1.341       .  A
N1123      N1130   1.320       .  A
Co1124     N1330   2.088       .  S
Co1124     N1131   2.084       .  S
C1125      N1163   1.349       .  A
C1125      C1267   1.475       .  S
N1126      N1133   1.320       .  A
N1126      N1156   1.325       .  A
N1127      N1145   1.320       .  A
N1127      N1163   1.325       .  A
N1128      C1157   1.349       .  A
N1128      N1138   1.326       .  A
H1129      C1154   1.082       .  S
N1130      N1151   1.324       .  A
N1131      N1149   1.320       .  A
N1131      N1136   1.325       .  A
C1132      N1136   1.349       .  A
C1132      C1160   1.459       .  S
C1132      C1274   1.477       .  S
N1133      C1148   1.342       .  A
N1133     Co1341   2.088   1_565  S
C1134      N1162   1.341       .  A
C1134      C1137   1.457       .  S
C1134      H1168   1.082       .  S
C1137      N1158   1.349       .  A
C1137      C1227   1.473       .  S
N1138      N1144   1.321       .  A
N1139      C1165   1.339       .  A
N1139      N1141   1.320       .  A
N1140      C1154   1.341       .  A
N1141      N1169   1.324       .  A
N1141     Co1159   2.084       .  S
H1142      C1165   1.082       .  S
H1143      C1160   1.082       .  S
N1144     Co1310   2.088   1_554  S
N1146      N1158   1.325       .  A
N1146      N1162   1.320       .  A
C1147      N1151   1.349       .  A
C1147      C1161   1.457       .  S
C1147      C1297   1.473       .  S
C1148      C1167   1.459       .  S
C1148      H1152   1.082       .  S
N1149      C1160   1.340       .  A
C1153      N1169   1.350       .  A
C1153      C1165   1.458       .  S
C1153      C1237   1.478       .  S
Co1155     N1319   2.088   1_544  S
N1156      C1167   1.349       .  A
C1157      C1254   1.475       .  S
Co1159    Cl1352   2.453       .  S
Cl1166    Co1345   2.453   1_554  S
C1167      C1287   1.478       .  S
C1170      N1188   1.348       .  A
C1170      C1207   1.457       .  S
C1170      C1294   1.471       .  S
N1171      N1188   1.324       .  A
N1171      N1193   1.321       .  A
N1171     Co1208   2.083       .  S
C1172      N1197   1.341       .  A
C1172      C1210   1.457       .  S
C1172      H1217   1.082       .  S
H1173      C1214   1.082       .  S
C1174      N1198   1.340       .  A
C1174      C1178   1.457       .  S
C1174      H1203   1.082       .  S
Co1175     N1193   2.084       .  S
Co1175     N1183   2.089       .  S
Co1175     N1215   2.087       .  S
Co1175     N1191   2.085       .  S
Co1175    Cl1219   2.452       .  S
N1176      C1214   1.340       .  A
N1176      N1183   1.321       .  A
N1176     Co1177   2.080       .  S
Co1177     N1180   2.091       .  S
Co1177     N1197   2.084       .  S
Co1177     N1184   2.083       .  S
Co1177    Cl1219   2.450       .  S
C1178      N1216   1.350       .  A
C1178      C1284   1.476       .  S
N1179      N1186   1.320       .  A
N1179      N1209   1.325       .  A
N1179     Co1212   2.085       .  S
N1180      N1198   1.321       .  A
N1180      N1216   1.326       .  A
N1181      C1210   1.349       .  A
N1181      N1191   1.325       .  A
H1182      C1207   1.082       .  S
N1183      N1204   1.325       .  A
N1184      N1202   1.319       .  A
N1184      N1189   1.324       .  A
C1185      N1189   1.350       .  A
C1185      C1213   1.459       .  S
C1185      C1234   1.480       .  S
N1186      C1201   1.340       .  A
N1186     Co1208   2.083       .  S
C1187      N1215   1.341       .  A
C1187      C1190   1.458       .  S
C1187      H1221   1.082       .  S
C1190      N1211   1.349       .  A
C1190      C1257   1.477       .  S
N1191      N1197   1.320       .  A
N1192      C1218   1.340       .  A
N1192      N1194   1.320       .  A
N1192     Co1208   2.082       .  S
N1193      C1207   1.340       .  A
N1194      N1222   1.325       .  A
N1194     Co1212   2.086       .  S
H1195      C1218   1.082       .  S
H1196      C1213   1.082       .  S
N1198     Co1212   2.082       .  S
N1199      N1211   1.326       .  A
N1199      N1215   1.321       .  A
N1199     Co1208   2.088       .  S
C1200      N1204   1.349       .  A
C1200      C1214   1.455       .  S
C1200      C1247   1.472       .  S
C1201      C1220   1.457       .  S
C1201      H1205   1.082       .  S
N1202      C1213   1.340       .  A
N1202     Co1212   2.080       .  S
C1206      N1222   1.350       .  A
C1206      C1218   1.459       .  S
C1206      C1277   1.480       .  S
Co1208    Cl1219   2.452       .  S
N1209      C1220   1.349       .  A
C1210      C1224   1.475       .  S
Co1212    Cl1219   2.452       .  S
C1220      C1264   1.473       .  S
C1223      C1224   1.409       .  A
C1223      C1228   1.408       .  A
C1223     Br1230   1.931       .  S
C1224      C1225   1.411       .  A
C1225      C1226   1.408       .  A
C1225     Br1232   1.930       .  S
C1226      C1227   1.408       .  A
C1226     Br1231   1.931       .  S
C1227      C1228   1.409       .  A
C1228     Br1229   1.930       .  S
C1233      C1234   1.412       .  A
C1233      C1238   1.408       .  A
C1233     Br1240   1.934       .  S
C1234      C1235   1.413       .  A
C1235      C1236   1.408       .  A
C1235     Br1242   1.933       .  S
C1236      C1237   1.410       .  A
C1236     Br1241   1.933       .  S
C1237      C1238   1.412       .  A
C1238     Br1239   1.933       .  S
C1243      C1244   1.409       .  A
C1243      C1248   1.407       .  A
C1243     Br1250   1.931       .  S
C1244      C1245   1.411       .  A
C1245      C1246   1.407       .  A
C1245     Br1252   1.931       .  S
C1246      C1247   1.408       .  A
C1246     Br1251   1.931       .  S
C1247      C1248   1.410       .  A
C1248     Br1249   1.930       .  S
C1253      C1254   1.409       .  A
C1253      C1258   1.408       .  A
C1253     Br1260   1.930       .  S
C1254      C1255   1.409       .  A
C1255      C1256   1.409       .  A
C1255     Br1262   1.930       .  S
C1256      C1257   1.411       .  A
C1256     Br1261   1.931       .  S
C1257      C1258   1.409       .  A
C1258     Br1259   1.931       .  S
C1263      C1264   1.410       .  A
C1263      C1268   1.407       .  A
C1263     Br1270   1.931       .  S
C1264      C1265   1.408       .  A
C1265      C1266   1.408       .  A
C1265     Br1272   1.931       .  S
C1266      C1267   1.411       .  A
C1266     Br1271   1.931       .  S
C1267      C1268   1.410       .  A
C1268     Br1269   1.932       .  S
C1273      C1274   1.410       .  A
C1273      C1278   1.409       .  A
C1273     Br1280   1.933       .  S
C1274      C1275   1.411       .  A
C1275      C1276   1.408       .  A
C1275     Br1282   1.932       .  S
C1276      C1277   1.412       .  A
C1276     Br1281   1.933       .  S
C1277      C1278   1.413       .  A
C1278     Br1279   1.931       .  S
C1283      C1284   1.408       .  A
C1283      C1288   1.409       .  A
C1283     Br1290   1.931       .  S
C1284      C1285   1.410       .  A
C1285      C1286   1.408       .  A
C1285     Br1292   1.931       .  S
C1286      C1287   1.410       .  A
C1286     Br1291   1.931       .  S
C1287      C1288   1.412       .  A
C1288     Br1289   1.931       .  S
C1293      C1294   1.409       .  A
C1293      C1298   1.407       .  A
C1293     Br1300   1.931       .  S
C1294      C1295   1.408       .  A
C1295      C1296   1.407       .  A
C1295     Br1302   1.931       .  S
C1296      C1297   1.410       .  A
C1296     Br1301   1.931       .  S
C1297      C1298   1.409       .  A
C1298     Br1299   1.931       .  S
C1303      N1321   1.348       .  A
C1303      C1340   1.458       .  S
C1303      C1430   1.474       .  S
N1304      N1321   1.324       .  A
N1304      N1326   1.320       .  A
N1304     Co1341   2.083   1_565  S
C1305      N1330   1.341       .  A
C1305      C1343   1.458       .  S
C1305      H1350   1.082       .  S
H1306      C1347   1.082       .  S
C1307      N1331   1.340       .  A
C1307      C1311   1.457       .  S
C1307      H1336   1.082       .  S
Co1308     N1316   2.084   1_545  S
N1309      C1347   1.341       .  A
N1309      N1316   1.320       .  A
Co1310     N1317   2.084       .  S
C1311      N1349   1.349       .  A
C1311      C1453   1.475       .  S
N1312      N1319   1.320       .  A
N1312      N1342   1.325       .  A
N1313      N1331   1.320       .  A
N1313      N1349   1.325       .  A
N1314      C1343   1.349       .  A
N1314      N1324   1.326       .  A
H1315      C1340   1.082       .  S
N1316      N1337   1.324       .  A
N1317      N1335   1.320       .  A
N1317      N1322   1.325       .  A
C1318      N1322   1.349       .  A
C1318      C1346   1.459       .  S
C1318      C1460   1.477       .  S
N1319      C1334   1.342       .  A
C1320      N1348   1.341       .  A
C1320      C1323   1.457       .  S
C1320      H1354   1.082       .  S
C1323      N1344   1.349       .  A
C1323      C1413   1.473       .  S
N1324      N1330   1.321       .  A
N1325      C1351   1.339       .  A
N1325      N1327   1.320       .  A
N1326      C1340   1.341       .  A
N1327      N1355   1.324       .  A
N1327     Co1345   2.084       .  S
H1328      C1351   1.082       .  S
H1329      C1346   1.082       .  S
N1332      N1344   1.325       .  A
N1332      N1348   1.320       .  A
C1333      N1337   1.349       .  A
C1333      C1347   1.457       .  S
C1333      C1483   1.473       .  S
C1334      C1353   1.459       .  S
C1334      H1338   1.082       .  S
N1335      C1346   1.340       .  A
C1339      N1355   1.350       .  A
C1339      C1351   1.458       .  S
C1339      C1423   1.478       .  S
N1342      C1353   1.349       .  A
C1343      C1440   1.475       .  S
C1353      C1473   1.478       .  S
C1356      N1374   1.348       .  A
C1356      C1393   1.457       .  S
C1356      C1480   1.471       .  S
N1357      N1374   1.324       .  A
N1357      N1379   1.321       .  A
N1357     Co1394   2.083       .  S
C1358      N1383   1.341       .  A
C1358      C1396   1.457       .  S
C1358      H1403   1.082       .  S
H1359      C1400   1.082       .  S
C1360      N1384   1.340       .  A
C1360      C1364   1.457       .  S
C1360      H1389   1.082       .  S
Co1361     N1379   2.084       .  S
Co1361     N1369   2.089       .  S
Co1361     N1401   2.087       .  S
Co1361     N1377   2.085       .  S
Co1361    Cl1405   2.452       .  S
N1362      C1400   1.340       .  A
N1362      N1369   1.321       .  A
N1362     Co1363   2.080       .  S
Co1363     N1366   2.091       .  S
Co1363     N1383   2.084       .  S
Co1363     N1370   2.083       .  S
Co1363    Cl1405   2.450       .  S
C1364      N1402   1.350       .  A
C1364      C1470   1.476       .  S
N1365      N1372   1.320       .  A
N1365      N1395   1.325       .  A
N1365     Co1398   2.085       .  S
N1366      N1384   1.321       .  A
N1366      N1402   1.326       .  A
N1367      C1396   1.349       .  A
N1367      N1377   1.325       .  A
H1368      C1393   1.082       .  S
N1369      N1390   1.325       .  A
N1370      N1388   1.319       .  A
N1370      N1375   1.324       .  A
C1371      N1375   1.350       .  A
C1371      C1399   1.459       .  S
C1371      C1420   1.480       .  S
N1372      C1387   1.340       .  A
N1372     Co1394   2.083       .  S
C1373      N1401   1.341       .  A
C1373      C1376   1.458       .  S
C1373      H1407   1.082       .  S
C1376      N1397   1.349       .  A
C1376      C1443   1.477       .  S
N1377      N1383   1.320       .  A
N1378      C1404   1.340       .  A
N1378      N1380   1.320       .  A
N1378     Co1394   2.082       .  S
N1379      C1393   1.340       .  A
N1380      N1408   1.325       .  A
N1380     Co1398   2.086       .  S
H1381      C1404   1.082       .  S
H1382      C1399   1.082       .  S
N1384     Co1398   2.082       .  S
N1385      N1397   1.326       .  A
N1385      N1401   1.321       .  A
N1385     Co1394   2.088       .  S
C1386      N1390   1.349       .  A
C1386      C1400   1.455       .  S
C1386      C1433   1.472       .  S
C1387      C1406   1.457       .  S
C1387      H1391   1.082       .  S
N1388      C1399   1.340       .  A
N1388     Co1398   2.080       .  S
C1392      N1408   1.350       .  A
C1392      C1404   1.459       .  S
C1392      C1463   1.480       .  S
Co1394    Cl1405   2.452       .  S
N1395      C1406   1.349       .  A
C1396      C1410   1.475       .  S
Co1398    Cl1405   2.452       .  S
C1406      C1450   1.473       .  S
C1409      C1410   1.409       .  A
C1409      C1414   1.408       .  A
C1409     Br1416   1.931       .  S
C1410      C1411   1.411       .  A
C1411      C1412   1.408       .  A
C1411     Br1418   1.930       .  S
C1412      C1413   1.408       .  A
C1412     Br1417   1.931       .  S
C1413      C1414   1.409       .  A
C1414     Br1415   1.930       .  S
C1419      C1420   1.412       .  A
C1419      C1424   1.408       .  A
C1419     Br1426   1.934       .  S
C1420      C1421   1.413       .  A
C1421      C1422   1.408       .  A
C1421     Br1428   1.933       .  S
C1422      C1423   1.410       .  A
C1422     Br1427   1.933       .  S
C1423      C1424   1.412       .  A
C1424     Br1425   1.933       .  S
C1429      C1430   1.409       .  A
C1429      C1434   1.407       .  A
C1429     Br1436   1.931       .  S
C1430      C1431   1.411       .  A
C1431      C1432   1.407       .  A
C1431     Br1438   1.931       .  S
C1432      C1433   1.408       .  A
C1432     Br1437   1.931       .  S
C1433      C1434   1.410       .  A
C1434     Br1435   1.930       .  S
C1439      C1440   1.409       .  A
C1439      C1444   1.408       .  A
C1439     Br1446   1.930       .  S
C1440      C1441   1.409       .  A
C1441      C1442   1.409       .  A
C1441     Br1448   1.930       .  S
C1442      C1443   1.411       .  A
C1442     Br1447   1.931       .  S
C1443      C1444   1.409       .  A
C1444     Br1445   1.931       .  S
C1449      C1450   1.410       .  A
C1449      C1454   1.407       .  A
C1449     Br1456   1.931       .  S
C1450      C1451   1.408       .  A
C1451      C1452   1.408       .  A
C1451     Br1458   1.931       .  S
C1452      C1453   1.411       .  A
C1452     Br1457   1.931       .  S
C1453      C1454   1.410       .  A
C1454     Br1455   1.932       .  S
C1459      C1460   1.410       .  A
C1459      C1464   1.409       .  A
C1459     Br1466   1.933       .  S
C1460      C1461   1.411       .  A
C1461      C1462   1.408       .  A
C1461     Br1468   1.932       .  S
C1462      C1463   1.412       .  A
C1462     Br1467   1.933       .  S
C1463      C1464   1.413       .  A
C1464     Br1465   1.931       .  S
C1469      C1470   1.408       .  A
C1469      C1474   1.409       .  A
C1469     Br1476   1.931       .  S
C1470      C1471   1.410       .  A
C1471      C1472   1.408       .  A
C1471     Br1478   1.931       .  S
C1472      C1473   1.410       .  A
C1472     Br1477   1.931       .  S
C1473      C1474   1.412       .  A
C1474     Br1475   1.931       .  S
C1479      C1480   1.409       .  A
C1479      C1484   1.407       .  A
C1479     Br1486   1.931       .  S
C1480      C1481   1.408       .  A
C1481      C1482   1.407       .  A
C1481     Br1488   1.931       .  S
C1482      C1483   1.410       .  A
C1482     Br1487   1.931       .  S
C1483      C1484   1.409       .  A
C1484     Br1485   1.931       .  S
