geometry optimzed in LAMMPS
_audit_creation_date              2020-11-30 
_audit_creation_method            'lammps2cif' 
_symmetry_space_group_name_H-M    'P1' 
_symmetry_Int_Tables_number       1 
_symmetry_cell_setting            triclinic 
loop_ 
_symmetry_equiv_pos_as_xyz 
  x,y,z 
_cell_length_a                    42.04396110094873 
_cell_length_b                    47.12258233914118 
_cell_length_c                    33.82135399261475 
_cell_angle_alpha                 89.81217115118639 
_cell_angle_beta                  90.04471094816692 
_cell_angle_gamma                 89.89170563064711 
loop_ 
_atom_site_label 
_atom_site_type_symbol 
_atom_site_fract_x 
_atom_site_fract_y 
_atom_site_fract_z 
_atom_site_charge 
N1          N  0.08651466  0.16398927  0.50980578    -0.27130
N2          N  0.11790451  0.16454323  0.51169607    -0.34990
C3          C  0.12746956  0.19152303  0.51617964     0.01210
C4          C  0.10088575  0.20897748  0.51728168     0.07240
C5          C  0.07530684  0.19064066  0.51312247    -0.05860
H6          H  0.15205157  0.19779780  0.51953537     0.07910
H7          H  0.05030182  0.19587942  0.51452903     0.09110
Cu8        Cu  0.14660606  0.12870013  0.51382955     0.44170
Cu9        Cu  0.06007215  0.12689086  0.50730058     0.41990
Cu10       Cu  0.10478089  0.06386422  0.53344107     0.43880
N11         N  0.16936986  0.09094275  0.52813343    -0.34510
N12         N  0.15374620  0.06761958  0.53782072    -0.28770
C13         C  0.17459030  0.04797334  0.55069858    -0.04870
C14         C  0.20479713  0.05933000  0.54826626     0.07350
C15         C  0.20069718  0.08655214  0.53373349     0.01140
H16         H  0.16818980  0.02708463  0.56137877     0.08800
H17         H  0.21890502  0.10249085  0.52967719     0.07870
N18         N  0.05605458  0.06429351  0.52425928    -0.35960
N19         N  0.03975390  0.08700725  0.51319236    -0.28140
C20         C  0.00876710  0.08013062  0.51038757    -0.03380
C21         C  0.00554359  0.05186402  0.52064542     0.05230
C22         C  0.03589191  0.04249559  0.52932773     0.03320
H23         H  0.98986229  0.09492013  0.50335877     0.08430
H24         H  0.04274350  0.02152958  0.53935056     0.07260
N25         N  0.35211829  0.99618058  0.69604734    -0.27130
N26         N  0.32068184  0.99699108  0.69653706    -0.34990
C27         C  0.31056067  0.99451826  0.73404165     0.01210
C28         C  0.33683796  0.99210996  0.75840761     0.07240
C29         C  0.36283079  0.99313472  0.73335631    -0.05860
H30         H  0.28592057  0.99592370  0.74301692     0.07910
H31         H  0.38767001  0.99309089  0.74172628     0.09110
Cu32       Cu  0.29267164  0.00598928  0.64766755     0.44170
Cu33       Cu  0.37879806  0.00266658  0.64522804     0.41990
Cu34       Cu  0.33416539  0.03113663  0.56172235     0.43880
N35         N  0.26994159  0.02438860  0.59965408    -0.34510
N36         N  0.28538993  0.03539584  0.56924360    -0.28770
C37         C  0.26455054  0.04924984  0.54587610    -0.04870
C38         C  0.23455192  0.04629367  0.56206816     0.07350
C39         C  0.23877780  0.03033932  0.59601665     0.01140
H40         H  0.27080522  0.06075844  0.51927287     0.08800
H41         H  0.22082506  0.02482249  0.61760398     0.07870
N42         N  0.38272804  0.02305499  0.56065729    -0.35960
N43         N  0.39895658  0.01263910  0.59094479    -0.28140
C44         C  0.42972126  0.01014014  0.58058502    -0.03380
C45         C  0.43297707  0.01940510  0.54195173     0.05230
C46         C  0.40273145  0.02739639  0.53022293     0.03320
H47         H  0.44831875  0.00226612  0.59985374     0.08430
H48         H  0.39573290  0.03584711  0.50173217     0.07260
N49         N  0.08661339  0.16497390  0.04516867    -0.27130
N50         N  0.11803770  0.16581695  0.04446003    -0.34990
C51         C  0.12740745  0.19299234  0.04178147     0.01210
C52         C  0.10065621  0.21017638  0.04043806     0.07240
C53         C  0.07518704  0.19161414  0.04287403    -0.05860
H54         H  0.15194586  0.19965316  0.03942978     0.07910
H55         H  0.05015459  0.19688377  0.04278294     0.09110
Cu56       Cu  0.14719457  0.13026812  0.04298194     0.44170
Cu57       Cu  0.06042751  0.12773695  0.04634226     0.41990
Cu58       Cu  0.10645660  0.06384468  0.03193930     0.43880
N59         N  0.17037181  0.09231740  0.03135082    -0.34510
N60         N  0.15504389  0.06828675  0.02503848    -0.28770
C61         C  0.17584780  0.04846960  0.01286230    -0.04870
C62         C  0.20575863  0.06047438  0.01232879     0.07350
C63         C  0.20154523  0.08824183  0.02431936     0.01140
H64         H  0.16958690  0.02703583  0.00457967     0.08800
H65         H  0.21946592  0.10466155  0.02560938     0.07870
N66         N  0.05751331  0.06429350  0.03766951    -0.35960
N67         N  0.04052880  0.08760199  0.04272595    -0.28140
C68         C  0.00950325  0.08073670  0.04288515    -0.03380
C69         C  0.00677228  0.05167212  0.03738669     0.05230
C70         C  0.03784089  0.04198773  0.03460050     0.03320
H71         H  0.99033721  0.09596930  0.04541046     0.08430
H72         H  0.04585099  0.02040845  0.03041202     0.07260
N73         N  0.35208612  0.99663829  0.86423213    -0.27130
N74         N  0.32065470  0.99771018  0.86360765    -0.34990
C75         C  0.31054783  0.99507583  0.82612294     0.01210
C76         C  0.33682168  0.99229680  0.80190644     0.07240
C77         C  0.36279957  0.99327912  0.82702511    -0.05860
H78         H  0.28592752  0.99658379  0.81703447     0.07910
H79         H  0.38764624  0.99292170  0.81875144     0.09110
Cu80       Cu  0.29259224  0.00707876  0.91216353     0.44170
Cu81       Cu  0.37887475  0.00299080  0.91501398     0.41990
Cu82       Cu  0.33434324  0.03100810  0.99827593     0.43880
N83         N  0.27011884  0.02541790  0.96019702    -0.34510
N84         N  0.28577942  0.03592479  0.99070778    -0.28770
C85         C  0.26525295  0.04980123  0.01425970    -0.04870
C86         C  0.23521406  0.04736469  0.99810177     0.07350
C87         C  0.23906006  0.03171595  0.96396275     0.01140
H88         H  0.27174623  0.06091370  0.04101043     0.08800
H89         H  0.22094007  0.02659637  0.94241420     0.07870
N90         N  0.38277286  0.02299420  0.99952795    -0.35960
N91         N  0.39907692  0.01280112  0.96929442    -0.28140
C92         C  0.42986474  0.01054585  0.97972265    -0.03380
C93         C  0.43299506  0.01974524  0.01833614     0.05230
C94         C  0.40269322  0.02742312  0.02998758     0.03320
H95         H  0.44856269  0.00294250  0.96050058     0.08430
H96         H  0.39560743  0.03581296  0.05838993     0.07260
N97         N  0.80775235  0.87615726  0.01345262    -0.27130
N98         N  0.77635824  0.87573881  0.01540229    -0.34990
C99         C  0.76652523  0.84870359  0.01815172     0.01210
C100        C  0.79294423  0.83106635  0.01772697     0.07240
C101        C  0.81868841  0.84932176  0.01484137    -0.05860
H102        H  0.74196329  0.84262261  0.02213659     0.07910
H103        H  0.84361646  0.84360662  0.01453901     0.09110
Cu104      Cu  0.74781489  0.91158528  0.01820788     0.44170
Cu105      Cu  0.83448652  0.91314781  0.01242982     0.41990
Cu106      Cu  0.78902955  0.97758422  0.02791289     0.43880
N107        N  0.72492998  0.94967438  0.02952839    -0.34510
N108        N  0.74043620  0.97367294  0.03532815    -0.28770
C109        C  0.71978671  0.99372369  0.04719678    -0.04870
C110        C  0.68979438  0.98186998  0.04802696     0.07350
C111        C  0.69380605  0.95397213  0.03656173     0.01140
H112        H  0.72619358  0.01521559  0.05500360     0.08800
H113        H  0.67576969  0.93764264  0.03555468     0.07870
N114        N  0.83793558  0.97658964  0.02183754    -0.35960
N115        N  0.85471329  0.95318718  0.01649811    -0.28140
C116        C  0.88580533  0.95986073  0.01640815    -0.03380
C117        C  0.88877861  0.98887860  0.02225047     0.05230
C118        C  0.85779175  0.99873791  0.02512400     0.03320
H119        H  0.90485012  0.94452378  0.01370852     0.08430
H120        H  0.84994114  0.02033676  0.02954974     0.07260
N121        N  0.54307718  0.04451385  0.19609192    -0.27130
N122        N  0.57451830  0.04372847  0.19670952    -0.34990
C123        C  0.58459150  0.04625395  0.23422186     0.01210
C124        C  0.55828562  0.04866772  0.25845947     0.07240
C125        C  0.53232244  0.04758126  0.23332938    -0.05860
H126        H  0.60922754  0.04493197  0.24329804     0.07910
H127        H  0.50747284  0.04767070  0.24160226     0.09110
Cu128      Cu  0.60269006  0.03489957  0.14806001     0.44170
Cu129      Cu  0.51636807  0.03816736  0.14525468     0.41990
Cu130      Cu  0.56113400  0.01089552  0.06178103     0.43880
N131        N  0.62533575  0.01696869  0.09985982    -0.34510
N132        N  0.60975911  0.00644373  0.06929359    -0.28770
C133        C  0.63037804  0.99268602  0.04574354    -0.04870
C134        C  0.66038746  0.99521994  0.06194844     0.07350
C135        C  0.65643241  0.01079559  0.09613118     0.01140
H136        H  0.62394478  0.98146980  0.01905471     0.08800
H137        H  0.67447776  0.01583358  0.11781395     0.07870
N138        N  0.51260302  0.01840948  0.06062394    -0.35960
N139        N  0.49622890  0.02838312  0.09093943    -0.28140
C140        C  0.46542022  0.03046707  0.08055689    -0.03380
C141        C  0.46233948  0.02137190  0.04189109     0.05230
C142        C  0.49269770  0.01393187  0.03015797     0.03320
H143        H  0.44667775  0.03790356  0.09983848     0.08430
H144        H  0.49984187  0.00572915  0.00167158     0.07260
N145        N  0.80912851  0.87595441  0.54859400    -0.27130
N146        N  0.77776632  0.87536808  0.54592204    -0.34990
C147        C  0.76825988  0.84833252  0.54192737     0.01210
C148        C  0.79485817  0.83093873  0.54175359     0.07240
C149        C  0.82038552  0.84925669  0.54624214    -0.05860
H150        H  0.74377577  0.84193836  0.53788599     0.07910
H151        H  0.84534470  0.84378599  0.54749330     0.09110
Cu152      Cu  0.74900980  0.91113771  0.54334760     0.44170
Cu153      Cu  0.83542949  0.91310173  0.55196863     0.41990
Cu154      Cu  0.79062721  0.97634641  0.52635536     0.43880
N155        N  0.72613234  0.94902275  0.53016298    -0.34510
N156        N  0.74168952  0.97257602  0.52146464    -0.28770
C157        C  0.72079894  0.99240126  0.50924812    -0.04870
C158        C  0.69063247  0.98089999  0.51111767     0.07350
C159        C  0.69480497  0.95341623  0.52459972     0.01140
H160        H  0.72713710  0.01351686  0.49941675     0.08800
H161        H  0.67665144  0.93734921  0.52798470     0.07870
N162        N  0.83933177  0.97584118  0.53576257    -0.35960
N163        N  0.85564197  0.95307370  0.54660512    -0.28140
C164        C  0.88662593  0.95994793  0.54947749    -0.03380
C165        C  0.88983761  0.98826811  0.53951493     0.05230
C166        C  0.85948791  0.99766975  0.53092276     0.03320
H167        H  0.90554224  0.94512048  0.55629837     0.08430
H168        H  0.85263694  0.01867204  0.52104908     0.07260
N169        N  0.54302136  0.04429337  0.36428894    -0.27130
N170        N  0.57446002  0.04363563  0.36378440    -0.34990
C171        C  0.58456136  0.04628581  0.32629674     0.01210
C172        C  0.55826620  0.04865290  0.30195592     0.07240
C173        C  0.53228250  0.04741341  0.32700363    -0.05860
H174        H  0.60920912  0.04504103  0.31730875     0.07910
H175        H  0.50744159  0.04738700  0.31864224     0.09110
Cu176      Cu  0.60251037  0.03462611  0.41259725     0.44170
Cu177      Cu  0.51642765  0.03757077  0.41510933     0.41990
Cu178      Cu  0.56120751  0.00908612  0.49850890     0.43880
N179        N  0.62535213  0.01612655  0.46043645    -0.34510
N180        N  0.60998821  0.00496015  0.49080238    -0.28770
C181        C  0.63090349  0.99100851  0.51395232    -0.04870
C182        C  0.66085785  0.99407772  0.49767241     0.07350
C183        C  0.65653081  0.01018948  0.46389551     0.01140
H184        H  0.62472573  0.97932986  0.54043984     0.08800
H185        H  0.67441468  0.01578772  0.44226021     0.07870
N186        N  0.51261916  0.01708305  0.49965922    -0.35960
N187        N  0.49635648  0.02749904  0.46939926    -0.28140
C188        C  0.46559868  0.02996420  0.47978802    -0.03380
C189        C  0.46237282  0.02067820  0.51841213     0.05230
C190        C  0.49263524  0.01270677  0.53011024     0.03320
H191        H  0.44698588  0.03784309  0.46054614     0.08430
H192        H  0.49965819  0.00425789  0.55859287     0.07260
N193        N  0.80704215  0.66423948  0.51071063    -0.27130
N194        N  0.77560486  0.66459969  0.51080715    -0.34990
C195        C  0.76552555  0.69153012  0.51452213     0.01210
C196        C  0.79184584  0.70911712  0.51734889     0.07240
C197        C  0.81775416  0.69098258  0.51439143    -0.05860
H198        H  0.74074215  0.69754942  0.51573058     0.07910
H199        H  0.84262194  0.69661817  0.51656354     0.09110
Cu200      Cu  0.74721533  0.62864112  0.51177775     0.44170
Cu201      Cu  0.83412035  0.62736664  0.50994302     0.41990
Cu202      Cu  0.78940168  0.56401577  0.53227421     0.43880
N203        N  0.72471299  0.59097794  0.52670634    -0.34510
N204        N  0.74053555  0.56779350  0.53679600    -0.28770
C205        C  0.71993865  0.54827233  0.55033253    -0.04870
C206        C  0.68966973  0.55954949  0.54791126     0.07350
C207        C  0.69345858  0.58659996  0.53268973     0.01140
H208        H  0.72655855  0.52752945  0.56144870     0.08800
H209        H  0.67511380  0.60245687  0.52845888     0.07870
N210        N  0.83814010  0.56442194  0.52413485    -0.35960
N211        N  0.85465375  0.58747685  0.51571996    -0.28140
C212        C  0.88569255  0.58061924  0.51399522    -0.03380
C213        C  0.88888618  0.55177986  0.52155711     0.05230
C214        C  0.85812194  0.54230835  0.52791367     0.03320
H215        H  0.90455885  0.59565608  0.50827970     0.08430
H216        H  0.85068995  0.52120787  0.53638275     0.07260
N217        N  0.54323035  0.49605881  0.69628432    -0.27130
N218        N  0.57466230  0.49699516  0.69684049    -0.34990
C219        C  0.58480842  0.49442567  0.73434212     0.01210
C220        C  0.55855862  0.49183318  0.75863940     0.07240
C221        C  0.53255247  0.49285136  0.73355573    -0.05860
H222        H  0.60943739  0.49588665  0.74336898     0.07910
H223        H  0.50771536  0.49266154  0.74188174     0.09110
Cu224      Cu  0.60266843  0.50622703  0.64814728     0.44170
Cu225      Cu  0.51642280  0.50248987  0.64547089     0.41990
Cu226      Cu  0.56093833  0.53064756  0.56201771     0.43880
N227        N  0.62516392  0.52463439  0.60007667    -0.34510
N228        N  0.60953366  0.53531005  0.56952542    -0.28770
C229        C  0.63010345  0.54915915  0.54594361    -0.04870
C230        C  0.66013978  0.54656011  0.56215438     0.07350
C231        C  0.65623004  0.53081267  0.59633337     0.01140
H232        H  0.62364003  0.56037545  0.51914630     0.08800
H233        H  0.67431946  0.52553343  0.61792293     0.07870
N234        N  0.51250937  0.52270082  0.56085131    -0.35960
N235        N  0.49623731  0.51243039  0.59112125    -0.28140
C236        C  0.46546909  0.51016069  0.58067416    -0.03380
C237        C  0.46231044  0.51943616  0.54201374     0.05230
C238        C  0.49257815  0.52717575  0.53035425     0.03320
H239        H  0.44680566  0.50247814  0.59990803     0.08430
H240        H  0.49964012  0.53559914  0.50189923     0.07260
N241        N  0.80870519  0.66399976  0.05032133    -0.27130
N242        N  0.77731420  0.66479297  0.04882913    -0.34990
C243        C  0.76786676  0.69188737  0.04474980     0.01210
C244        C  0.79454727  0.70916103  0.04343472     0.07240
C245        C  0.82004399  0.69057629  0.04709176    -0.05860
H246        H  0.74328652  0.69835392  0.04177827     0.07910
H247        H  0.84507280  0.69557314  0.04538011     0.09110
Cu248      Cu  0.74851025  0.62912839  0.04637589     0.44170
Cu249      Cu  0.83497619  0.62677425  0.05210367     0.41990
Cu250      Cu  0.79039363  0.56430389  0.02542316     0.43880
N251        N  0.72584819  0.59162991  0.03124379    -0.34510
N252        N  0.74150795  0.56843353  0.02103050    -0.28770
C253        C  0.72070924  0.54900269  0.00785140    -0.04870
C254        C  0.69049231  0.56034489  0.01062742     0.07350
C255        C  0.69452180  0.58734514  0.02568116     0.01140
H256        H  0.72714503  0.52823691  0.99685303     0.08800
H257        H  0.67625801  0.60320656  0.03021996     0.07870
N258        N  0.83901071  0.56431375  0.03501239    -0.35960
N259        N  0.85528295  0.58695852  0.04585460    -0.28140
C260        C  0.88624125  0.58001670  0.04870758    -0.03380
C261        C  0.88961272  0.55163122  0.03899360     0.05230
C262        C  0.85915628  0.54241209  0.03041608     0.03320
H263        H  0.90501218  0.59490937  0.05543844     0.08430
H264        H  0.85216186  0.52142803  0.02091820     0.07260
N265        N  0.54338480  0.49625296  0.86442921    -0.27130
N266        N  0.57481304  0.49708688  0.86385055    -0.34990
C267        C  0.58489544  0.49441551  0.82638162     0.01210
C268        C  0.55859548  0.49185542  0.80212971     0.07240
C269        C  0.53263129  0.49299970  0.82721100    -0.05860
H270        H  0.60951428  0.49580636  0.81732504     0.07910
H271        H  0.50778020  0.49289493  0.81889915     0.09110
Cu272      Cu  0.60281932  0.50642679  0.91243894     0.44170
Cu273      Cu  0.51678668  0.50296732  0.91518528     0.41990
Cu274      Cu  0.56138534  0.53185222  0.99807351     0.43880
N275        N  0.62548361  0.52521448  0.95993363    -0.34510
N276        N  0.61003162  0.53630033  0.99021688    -0.28770
C277        C  0.63080486  0.55031464  0.01326394    -0.04870
C278        C  0.66076562  0.54739402  0.99697583     0.07350
C279        C  0.65659700  0.53128428  0.96332710     0.01140
H280        H  0.62453718  0.56184798  0.03975462     0.08800
H281        H  0.67455241  0.52567162  0.94181137     0.07870
N282        N  0.51295137  0.52362669  0.99943957    -0.35960
N283        N  0.49672600  0.51308725  0.96936918    -0.28140
C284        C  0.46600979  0.51057223  0.97987138    -0.03380
C285        C  0.46280035  0.51995444  0.01836830     0.05230
C286        C  0.49300550  0.52802957  0.02988110     0.03320
H287        H  0.44741662  0.50261228  0.96078767     0.08430
H288        H  0.50001312  0.53659667  0.05820968     0.07260
N289        N  0.08796320  0.37559828  0.54944318    -0.27130
N290        N  0.11937385  0.37503007  0.54776339    -0.34990
C291        C  0.12914612  0.34794528  0.54499901     0.01210
C292        C  0.10266618  0.33047246  0.54500778     0.07240
C293        C  0.07696164  0.34883648  0.54775267    -0.05860
H294        H  0.15369100  0.34170772  0.54106973     0.07910
H295        H  0.05201873  0.34324845  0.54758105     0.09110
Cu296      Cu  0.14793578  0.41080228  0.54431771     0.44170
Cu297      Cu  0.06121368  0.41268093  0.55002796     0.41990
Cu298      Cu  0.10601414  0.47605553  0.52731278     0.43880
N299        N  0.17054366  0.44862839  0.53051727    -0.34510
N300        N  0.15480289  0.47214824  0.52185647    -0.28770
C301        C  0.17543865  0.49193836  0.50919990    -0.04870
C302        C  0.20565072  0.48046832  0.51075816     0.07350
C303        C  0.20178936  0.45303140  0.52451249     0.01140
H304        H  0.16889040  0.51302151  0.49934194     0.08800
H305        H  0.22007741  0.43701419  0.52783536     0.07870
N306        N  0.05732056  0.47567798  0.53583917    -0.35960
N307        N  0.04079375  0.45263854  0.54431346    -0.28140
C308        C  0.00976769  0.45953230  0.54611881    -0.03380
C309        C  0.00659588  0.48837179  0.53854475     0.05230
C310        C  0.03735893  0.49781135  0.53210825     0.03320
H311        H  0.99088912  0.44451370  0.55186516     0.08430
H312        H  0.04479484  0.51889580  0.52356474     0.07260
N313        N  0.35244278  0.54458076  0.36391025    -0.27130
N314        N  0.32101105  0.54374205  0.36325443    -0.34990
C315        C  0.31094595  0.54639076  0.32573135     0.01210
C316        C  0.33725379  0.54893994  0.30152420     0.07240
C317        C  0.36320836  0.54780788  0.32668221    -0.05860
H318        H  0.28632849  0.54502070  0.31662715     0.07910
H319        H  0.38806283  0.54794306  0.31843409     0.09110
Cu320      Cu  0.29291622  0.53452822  0.41185330     0.44170
Cu321      Cu  0.37907614  0.53801322  0.41481900     0.41990
Cu322      Cu  0.33435521  0.50983924  0.49813472     0.43880
N323        N  0.27027628  0.51596611  0.45967981    -0.34510
N324        N  0.28578626  0.50516606  0.49024410    -0.28770
C325        C  0.26513799  0.49111577  0.51348952    -0.04870
C326        C  0.23518267  0.49372609  0.49704943     0.07350
C327        C  0.23921535  0.50968042  0.46309137     0.01140
H328        H  0.27150037  0.47972173  0.54017884     0.08800
H329        H  0.22123473  0.51498023  0.44137120     0.07870
N330        N  0.38279879  0.51776736  0.49946103    -0.35960
N331        N  0.39911809  0.52803359  0.46922636    -0.28140
C332        C  0.42987029  0.53028879  0.47972823    -0.03380
C333        C  0.43298323  0.52100953  0.51838789     0.05230
C334        C  0.40269637  0.51327998  0.52999735     0.03320
H335        H  0.44855693  0.53796607  0.46052533     0.08430
H336        H  0.39560255  0.50485434  0.55843886     0.07260
N337        N  0.08877165  0.37691941  0.00878950    -0.27130
N338        N  0.12016620  0.37653586  0.01066908    -0.34990
C339        C  0.13006843  0.34962867  0.01548964     0.01210
C340        C  0.10364540  0.33209981  0.01714556     0.07240
C341        C  0.07788712  0.35021511  0.01237761    -0.05860
H342        H  0.15477269  0.34356875  0.01817159     0.07910
H343        H  0.05296089  0.34459808  0.01321577     0.09110
Cu344      Cu  0.14845069  0.41249151  0.01234566     0.44170
Cu345      Cu  0.06195067  0.41383296  0.00610030     0.41990
Cu346      Cu  0.10591616  0.47674438  0.03328435     0.43880
N347        N  0.17073816  0.45009693  0.02752663    -0.34510
N348        N  0.15484439  0.47313539  0.03784446    -0.28770
C349        C  0.17544444  0.49266656  0.05123401    -0.04870
C350        C  0.20576677  0.48153197  0.04847421     0.07350
C351        C  0.20200421  0.45456743  0.03322016     0.01140
H352        H  0.16880652  0.51334163  0.06237666     0.08800
H353        H  0.22040532  0.43883385  0.02867241     0.07870
N354        N  0.05732994  0.47625488  0.02345545    -0.35960
N355        N  0.04128047  0.45351884  0.01244954    -0.28140
C356        C  0.01025258  0.46024509  0.00962407    -0.03380
C357        C  0.00661481  0.48857497  0.01952612     0.05070
C358        C  0.03698121  0.49798602  0.02816107     0.03320
H359        H  0.99161802  0.44523526  0.00281540     0.08430
H360        H  0.04378093  0.51898545  0.03781005     0.07260
N361        N  0.35261257  0.54476725  0.19575810    -0.27130
N362        N  0.32117818  0.54401610  0.19624079    -0.34990
C363        C  0.31103614  0.54659638  0.23369683     0.01210
C364        C  0.33729917  0.54901078  0.25803748     0.07240
C365        C  0.36330570  0.54787404  0.23302735    -0.05860
H366        H  0.28639425  0.54526040  0.24267274     0.07910
H367        H  0.38814164  0.54790002  0.24141135     0.09110
Cu368      Cu  0.29318704  0.53496334  0.14753036     0.44170
Cu369      Cu  0.37933311  0.53817566  0.14506505     0.41990
Cu370      Cu  0.33480186  0.50975784  0.06193696     0.43880
N371        N  0.27058319  0.51650200  0.09974359    -0.34510
N372        N  0.28611591  0.50551476  0.06945564    -0.28770
C373        C  0.26539971  0.49165143  0.04617013    -0.04870
C374        C  0.23538803  0.49456351  0.06229925     0.07350
C375        C  0.23946326  0.51051008  0.09611947     0.01140
H376        H  0.27175201  0.48016866  0.01966746     0.08800
H377        H  0.22145080  0.51601060  0.11761784     0.07870
N378        N  0.38327425  0.51773349  0.06075058    -0.35960
N379        N  0.39949877  0.52814118  0.09090761    -0.28140
C380        C  0.43024219  0.53058027  0.08048106    -0.03380
C381        C  0.43346205  0.52127577  0.04194495     0.05230
C382        C  0.40323983  0.51332797  0.03033554     0.03320
H383        H  0.44884274  0.53844109  0.09963396     0.08430
H384        H  0.39622540  0.50487501  0.00194255     0.07260
C385        C  0.91950751  0.53535558  0.03465589    -0.05300
C386        C  0.92221922  0.51524965  0.00427900    -0.32730
C387        C  0.95051132  0.50011222  0.99867877     0.36520
C388        C  0.97660186  0.50465916  0.02402511    -0.05660
C389        C  0.97386086  0.52472582  0.05444736    -0.32630
C390        C  0.94557769  0.53986153  0.06004351     0.36420
H391        H  0.90258280  0.51170284  0.98414953     0.16790
O392        O  0.95259136  0.48145467  0.96775418    -0.60130
H393        H  0.99349459  0.52828763  0.07457513     0.16810
O394        O  0.94350594  0.55852432  0.09096383    -0.60230
H395        H  0.93461623  0.54732731  0.11323023     0.43800
H396        H  0.96141753  0.49267159  0.94546776     0.43760
C397        C  0.97660546  0.50484195  0.53464153    -0.05300
C398        C  0.94869135  0.49098488  0.52265391    -0.32730
C399        C  0.92006518  0.50589147  0.51803551     0.36520
C400        C  0.91888752  0.53532097  0.52543269    -0.05660
C401        C  0.94680530  0.54918152  0.53740547    -0.32630
C402        C  0.97543439  0.53427474  0.54201575     0.36420
H403        H  0.94907009  0.46852020  0.51602393     0.16790
O404        O  0.89383587  0.49169011  0.50437930    -0.60130
H405        H  0.94642701  0.57164702  0.54402990     0.16810
O406        O  0.00167330  0.54847848  0.55563908    -0.60230
H407        H  0.00884273  0.56044643  0.53317865     0.43800
H408        H  0.88666890  0.47969698  0.52681487     0.43760
C409        C  0.79515976  0.79969159  0.53642079    -0.05300
C410        C  0.76908452  0.78378758  0.54976953    -0.32730
C411        C  0.76761636  0.75443173  0.54394495     0.36520
C412        C  0.79256468  0.74025366  0.52423722    -0.05660
C413        C  0.81887898  0.75612391  0.51131708    -0.32630
C414        C  0.82039050  0.78551721  0.51734387     0.36420
H415        H  0.74973332  0.79409585  0.56526592     0.16790
O416        O  0.74237507  0.73973827  0.55940529    -0.60130
H417        H  0.83822006  0.74583472  0.49579446     0.16810
O418        O  0.84582532  0.80028754  0.50253254    -0.60230
H419        H  0.86363562  0.79627889  0.52098853     0.43800
H420        H  0.72402175  0.74447540  0.54213387     0.43760
C421        C  0.79369672  0.79976659  0.02289225    -0.05300
C422        C  0.82008197  0.78683654  0.04107103    -0.32730
C423        C  0.82100264  0.75745584  0.04768404     0.36520
C424        C  0.79514264  0.74030997  0.03609535    -0.05660
C425        C  0.76909339  0.75324833  0.01715687    -0.32630
C426        C  0.76814661  0.78257805  0.01064897     0.36420
H427        H  0.83986525  0.79959071  0.05117425     0.16790
O428        O  0.84659838  0.74607946  0.06729562    -0.60130
H429        H  0.74929479  0.74062324  0.00684357     0.16810
O430        O  0.74269790  0.79398256  0.99073041    -0.60230
H431        H  0.72463617  0.79310687  0.00955325     0.43800
H432        H  0.86414379  0.74590297  0.04769935     0.43760
C433        C  0.10016775  0.24146984  0.03569391    -0.05300
C434        C  0.12536803  0.25744474  0.05118647    -0.32730
C435        C  0.12678282  0.28686361  0.04572608     0.36520
C436        C  0.10270088  0.30098745  0.02419685    -0.05660
C437        C  0.07715562  0.28506527  0.00931379    -0.32630
C438        C  0.07567568  0.25562031  0.01498369     0.36420
H439        H  0.14407051  0.24712614  0.06798441     0.16790
O440        O  0.15105252  0.30166025  0.06319207    -0.60130
H441        H  0.05848724  0.29534913  0.99243250     0.16810
O442        O  0.05113668  0.24078841  0.99818004    -0.60230
H443        H  0.03246773  0.24443850  0.01535593     0.43800
H444        H  0.17030638  0.29709705  0.04749309     0.43760
C445        C  0.91875078  0.00526533  0.02623492    -0.05300
C446        C  0.94646284  0.99537586  0.00764319    -0.32730
C447        C  0.97530455  0.00997778  0.01119003     0.36520
C448        C  0.97689821  0.03513015  0.03364460    -0.05660
C449        C  0.94920727  0.04498295  0.05230247    -0.32630
C450        C  0.92037528  0.03038225  0.04877426     0.36420
H451        H  0.94577382  0.97639974  0.98968523     0.16790
O452        O  0.00128664  0.00018702  0.99086426    -0.60130
H453        H  0.94989434  0.06396079  0.07025877     0.16810
O454        O  0.89442279  0.04016053  0.06917177    -0.60230
H455        H  0.88716265  0.05724506  0.05448516     0.43800
H456        H  0.00864240  0.98321850  0.00573634     0.43760
C457        C  0.10185259  0.29927458  0.53921529    -0.05300
C458        C  0.07603442  0.28686900  0.51938341    -0.32730
C459        C  0.07513285  0.25758757  0.51220793     0.36520
C460        C  0.10039644  0.24003679  0.52496140    -0.05660
C461        C  0.12590506  0.25245431  0.54542620    -0.32630
C462        C  0.12685049  0.28169466  0.55245993     0.36420
H463        H  0.05673842  0.29997837  0.50844201     0.16790
O464        O  0.05024749  0.24670249  0.49090410    -0.60130
H465        H  0.14522746  0.23946694  0.55653145     0.16810
O466        O  0.15167830  0.29263383  0.57384983    -0.60230
H467        H  0.17031545  0.29195153  0.55590376     0.43800
H468        H  0.03193423  0.24652055  0.50938026     0.43760
C469        C  0.91957213  0.00426301  0.53450724    -0.05300
C470        C  0.93924591  0.00922859  0.56720745    -0.32730
C471        C  0.96713901  0.02513795  0.56300653     0.36520
C472        C  0.97580794  0.03586830  0.52565754    -0.05660
C473        C  0.95613160  0.03090392  0.49295779    -0.32630
C474        C  0.92824085  0.01499184  0.49715802     0.36420
H475        H  0.93265721  0.00119013  0.59611081     0.16790
O476        O  0.98552710  0.03051267  0.59564156    -0.60130
H477        H  0.96271851  0.03894283  0.46405401     0.16810
O478        O  0.90985056  0.00961835  0.46452413    -0.60230
H479        H  0.91709800  0.99085233  0.45479663     0.43800
H480        H  0.97827820  0.04927860  0.60536774     0.43760
loop_ 
_geom_bond_atom_site_label_1 
_geom_bond_atom_site_label_2 
_geom_bond_distance 
_geom_bond_site_symmetry_2 
_ccdc_geom_bond_type 
N1            N2   1.322       .  A
N1            C5   1.346       .  A
N1           Cu9   2.075       .  S
N2            C3   1.343       .  A
N2           Cu8   2.075       .  S
C3            C4   1.387       .  A
C3            H6   1.082       .  S
C4            C5   1.388       .  A
C4          C460   1.487       .  S
C5            H7   1.081       .  S
Cu8          N11   2.074       .  S
Cu9          N19   2.075       .  S
Cu10         N12   2.072       .  S
Cu10         N18   2.072       .  S
N11          N12   1.322       .  A
N11          C15   1.346       .  A
N12          C13   1.345       .  A
C13          C14   1.381       .  A
C13          H16   1.082       .  S
C14          C15   1.383       .  A
C14          C38   1.468       .  S
C15          H17   1.082       .  S
N18          N19   1.323       .  A
N18          C22   1.344       .  A
N19          C20   1.346       .  A
C20          C21   1.382       .  A
C20          H23   1.082   1_455  S
C21          C22   1.380       .  A
C21         C472   1.471   1_455  S
C22          H24   1.082       .  S
N25          N26   1.322       .  A
N25          C29   1.347       .  A
N25         Cu33   2.075   1_565  S
N26          C27   1.343       .  A
N26         Cu32   2.071   1_565  S
C27          C28   1.382       .  A
C27          H30   1.082       .  S
C28          C29   1.384       .  A
C28          C76   1.471       .  S
C29          H31   1.082       .  S
Cu32         N35   2.071       .  S
Cu33         N43   2.076       .  S
Cu34         N36   2.076       .  S
Cu34         N42   2.077       .  S
N35          N36   1.322       .  A
N35          C39   1.345       .  A
N36          C37   1.346       .  A
C37          C38   1.383       .  A
C37          H40   1.082       .  S
C38          C39   1.382       .  A
C39          H41   1.082       .  S
N42          N43   1.323       .  A
N42          C46   1.345       .  A
N43          C44   1.345       .  A
C44          C45   1.383       .  A
C44          H47   1.082       .  S
C45          C46   1.383       .  A
C45         C189   1.472       .  S
C46          H48   1.082       .  S
N49          N50   1.322       .  A
N49          C53   1.345       .  A
N49         Cu57   2.074       .  S
N50          C51   1.343       .  A
N50         Cu56   2.075       .  S
C51          C52   1.385       .  A
C51          H54   1.082       .  S
C52          C53   1.386       .  A
C52         C433   1.483       .  S
C53          H55   1.081       .  S
Cu56         N59   2.074       .  S
Cu57         N67   2.073       .  S
Cu58         N60   2.067       .  S
Cu58         N66   2.067       .  S
N59          N60   1.322       .  A
N59          C63   1.346       .  A
N60          C61   1.344       .  A
C61          C62   1.380       .  A
C61          H64   1.082       .  S
C62          C63   1.382       .  A
C62          C86   1.465   1_554  S
C63          H65   1.082       .  S
N66          N67   1.321       .  A
N66          C70   1.343       .  A
N67          C68   1.345       .  A
C68          C69   1.388       .  A
C68          H71   1.082   1_455  S
C69          C70   1.386       .  A
C69         C448   1.485   1_455  S
C70          H72   1.080       .  S
N73          N74   1.323       .  A
N73          C77   1.347       .  A
N73         Cu81   2.076   1_565  S
N74          C75   1.343       .  A
N74         Cu80   2.071   1_565  S
C75          C76   1.382       .  A
C75          H78   1.082       .  S
C76          C77   1.384       .  A
C77          H79   1.082       .  S
Cu80         N83   2.071       .  S
Cu81         N91   2.076       .  S
Cu82         N84   2.070       .  S
Cu82         N90   2.071       .  S
N83          N84   1.322       .  A
N83          C87   1.345       .  A
N84          C85   1.345   1_556  A
C85          C86   1.381   1_554  A
C85          H88   1.082       .  S
C86          C87   1.381       .  A
C87          H89   1.082       .  S
N90          N91   1.323       .  A
N90          C94   1.344   1_556  A
N91          C92   1.345       .  A
C92          C93   1.384   1_556  A
C92          H95   1.082       .  S
C93          C94   1.382       .  A
C93         C141   1.470       .  S
C94          H96   1.082       .  S
N97          N98   1.322       .  A
N97         C101   1.345       .  A
N97        Cu105   2.076       .  S
N98          C99   1.343       .  A
N98        Cu104   2.073       .  S
C99         C100   1.386       .  A
C99         H102   1.081       .  S
C100        C101   1.387       .  A
C100        C421   1.485       .  S
C101        H103   1.082       .  S
Cu104       N107   2.072       .  S
Cu105       N115   2.076       .  S
Cu106       N108   2.067       .  S
Cu106       N114   2.067       .  S
N107        N108   1.322       .  A
N107        C111   1.345       .  A
N108        C109   1.344       .  A
C109        C110   1.380       .  A
C109        H112   1.082   1_565  S
C110        C111   1.382       .  A
C110        C134   1.465       .  S
C111        H113   1.082       .  S
N114        N115   1.321       .  A
N114        C118   1.343       .  A
N115        C116   1.345       .  A
C116        C117   1.388       .  A
C116        H119   1.082       .  S
C117        C118   1.386       .  A
C117        C445   1.485   1_565  S
C118        H120   1.080   1_565  S
N121        N122   1.323       .  A
N121        C125   1.347       .  A
N121       Cu129   2.076       .  S
N122        C123   1.343       .  A
N122       Cu128   2.071       .  S
C123        C124   1.382       .  A
C123        H126   1.082       .  S
C124        C125   1.384       .  A
C124        C172   1.471       .  S
C125        H127   1.082       .  S
Cu128       N131   2.070       .  S
Cu129       N139   2.076       .  S
Cu130       N132   2.070       .  S
Cu130       N138   2.071       .  S
N131        N132   1.322       .  A
N131        C135   1.345       .  A
N132        C133   1.345   1_545  A
C133        C134   1.381       .  A
C133        H136   1.082       .  S
C134        C135   1.381   1_565  A
C135        H137   1.082       .  S
N138        N139   1.323       .  A
N138        C142   1.344       .  A
N139        C140   1.345       .  A
C140        C141   1.384       .  A
C140        H143   1.082       .  S
C141        C142   1.382       .  A
C142        H144   1.082       .  S
N145        N146   1.322       .  A
N145        C149   1.346       .  A
N145       Cu153   2.076       .  S
N146        C147   1.343       .  A
N146       Cu152   2.074       .  S
C147        C148   1.385       .  A
C147        H150   1.082       .  S
C148        C149   1.387       .  A
C148        C409   1.484       .  S
C149        H151   1.081       .  S
Cu152       N155   2.073       .  S
Cu153       N163   2.075       .  S
Cu154       N156   2.072       .  S
Cu154       N162   2.072       .  S
N155        N156   1.322       .  A
N155        C159   1.346       .  A
N156        C157   1.345       .  A
C157        C158   1.382       .  A
C157        H160   1.082   1_565  S
C158        C159   1.382       .  A
C158        C182   1.468       .  S
C159        H161   1.082       .  S
N162        N163   1.323       .  A
N162        C166   1.344       .  A
N163        C164   1.346       .  A
C164        C165   1.382       .  A
C164        H167   1.082       .  S
C165        C166   1.380       .  A
C165        C469   1.471   1_565  S
C166        H168   1.082   1_565  S
N169        N170   1.322       .  A
N169        C173   1.347       .  A
N169       Cu177   2.075       .  S
N170        C171   1.343       .  A
N170       Cu176   2.071       .  S
C171        C172   1.382       .  A
C171        H174   1.082       .  S
C172        C173   1.384       .  A
C173        H175   1.082       .  S
Cu176       N179   2.070       .  S
Cu177       N187   2.075       .  S
Cu178       N180   2.076       .  S
Cu178       N186   2.077       .  S
N179        N180   1.322       .  A
N179        C183   1.345       .  A
N180        C181   1.346   1_545  A
C181        C182   1.383       .  A
C181        H184   1.082       .  S
C182        C183   1.381   1_565  A
C183        H185   1.082       .  S
N186        N187   1.323       .  A
N186        C190   1.345       .  A
N187        C188   1.345       .  A
C188        C189   1.383       .  A
C188        H191   1.082       .  S
C189        C190   1.383       .  A
C190        H192   1.082       .  S
N193        N194   1.322       .  A
N193        C197   1.345       .  A
N193       Cu201   2.076       .  S
N194        C195   1.343       .  A
N194       Cu200   2.075       .  S
C195        C196   1.387       .  A
C195        H198   1.080       .  S
C196        C197   1.387       .  A
C196        C412   1.487       .  S
C197        H199   1.082       .  S
Cu200       N203   2.074       .  S
Cu201       N211   2.076       .  S
Cu202       N204   2.068       .  S
Cu202       N210   2.068       .  S
N203        N204   1.322       .  A
N203        C207   1.346       .  A
N204        C205   1.344       .  A
C205        C206   1.380       .  A
C205        H208   1.082       .  S
C206        C207   1.383       .  A
C206        C230   1.466       .  S
C207        H209   1.082       .  S
N210        N211   1.321       .  A
N210        C214   1.343       .  A
N211        C212   1.345       .  A
C212        C213   1.388       .  A
C212        H215   1.082       .  S
C213        C214   1.386       .  A
C213        C400   1.485       .  S
C214        H216   1.081       .  S
N217        N218   1.322       .  A
N217        C221   1.347       .  A
N217       Cu225   2.076       .  S
N218        C219   1.343       .  A
N218       Cu224   2.071       .  S
C219        C220   1.382       .  A
C219        H222   1.082       .  S
C220        C221   1.384       .  A
C220        C268   1.471       .  S
C221        H223   1.082       .  S
Cu224       N227   2.070       .  S
Cu225       N235   2.076       .  S
Cu226       N228   2.071       .  S
Cu226       N234   2.071       .  S
N227        N228   1.322       .  A
N227        C231   1.345       .  A
N228        C229   1.345       .  A
C229        C230   1.381       .  A
C229        H232   1.082       .  S
C230        C231   1.382       .  A
C231        H233   1.082       .  S
N234        N235   1.323       .  A
N234        C238   1.344       .  A
N235        C236   1.345       .  A
C236        C237   1.384       .  A
C236        H239   1.082       .  S
C237        C238   1.382       .  A
C237        C333   1.470       .  S
C238        H240   1.082       .  S
N241        N242   1.321       .  A
N241        C245   1.345       .  A
N241       Cu249   2.072       .  S
N242        C243   1.343       .  A
N242       Cu248   2.075       .  S
C243        C244   1.388       .  A
C243        H246   1.081       .  S
C244        C245   1.388       .  A
C244        C424   1.488       .  S
C245        H247   1.080       .  S
Cu248       N251   2.075       .  S
Cu249       N259   2.071       .  S
Cu250       N252   2.069       .  S
Cu250       N258   2.069       .  S
N251        N252   1.322       .  A
N251        C255   1.346       .  A
N252        C253   1.344       .  A
C253        C254   1.381       .  A
C253        H256   1.082   1_554  S
C254        C255   1.383       .  A
C254        C278   1.467   1_554  S
C255        H257   1.082       .  S
N258        N259   1.321       .  A
N258        C262   1.343       .  A
N259        C260   1.345       .  A
C260        C261   1.385       .  A
C260        H263   1.082       .  S
C261        C262   1.384       .  A
C261        C385   1.479       .  S
C262        H264   1.082       .  S
N265        N266   1.322       .  A
N265        C269   1.346       .  A
N265       Cu273   2.074       .  S
N266        C267   1.343       .  A
N266       Cu272   2.070       .  S
C267        C268   1.382       .  A
C267        H270   1.082       .  S
C268        C269   1.384       .  A
C269        H271   1.082       .  S
Cu272       N275   2.069       .  S
Cu273       N283   2.075       .  S
Cu274       N276   2.074       .  S
Cu274       N282   2.074       .  S
N275        N276   1.322       .  A
N275        C279   1.344       .  A
N276        C277   1.346   1_556  A
C277        C278   1.382   1_554  A
C277        H280   1.082       .  S
C278        C279   1.381       .  A
C279        H281   1.082       .  S
N282        N283   1.323       .  A
N282        C286   1.345   1_556  A
N283        C284   1.345       .  A
C284        C285   1.383   1_556  A
C284        H287   1.082       .  S
C285        C286   1.382       .  A
C285        C381   1.471       .  S
C286        H288   1.082       .  S
N289        N290   1.322       .  A
N289        C293   1.345       .  A
N289       Cu297   2.076       .  S
N290        C291   1.344       .  A
N290       Cu296   2.075       .  S
C291        C292   1.386       .  A
C291        H294   1.081       .  S
C292        C293   1.387       .  A
C292        C457   1.484       .  S
C293        H295   1.082       .  S
Cu296       N299   2.074       .  S
Cu297       N307   2.076       .  S
Cu298       N300   2.068       .  S
Cu298       N306   2.068       .  S
N299        N300   1.322       .  A
N299        C303   1.346       .  A
N300        C301   1.344       .  A
C301        C302   1.380       .  A
C301        H304   1.082       .  S
C302        C303   1.383       .  A
C302        C326   1.466       .  S
C303        H305   1.082       .  S
N306        N307   1.321       .  A
N306        C310   1.343       .  A
N307        C308   1.345       .  A
C308        C309   1.388       .  A
C308        H311   1.082   1_455  S
C309        C310   1.386       .  A
C309        C397   1.485   1_455  S
C310        H312   1.081       .  S
N313        N314   1.322       .  A
N313        C317   1.347       .  A
N313       Cu321   2.075       .  S
N314        C315   1.343       .  A
N314       Cu320   2.070       .  S
C315        C316   1.382       .  A
C315        H318   1.082       .  S
C316        C317   1.384       .  A
C316        C364   1.471       .  S
C317        H319   1.082       .  S
Cu320       N323   2.070       .  S
Cu321       N331   2.075       .  S
Cu322       N324   2.071       .  S
Cu322       N330   2.072       .  S
N323        N324   1.322       .  A
N323        C327   1.345       .  A
N324        C325   1.345       .  A
C325        C326   1.381       .  A
C325        H328   1.082       .  S
C326        C327   1.381       .  A
C327        H329   1.082       .  S
N330        N331   1.323       .  A
N330        C334   1.345       .  A
N331        C332   1.345       .  A
C332        C333   1.383       .  A
C332        H335   1.082       .  S
C333        C334   1.382       .  A
C334        H336   1.082       .  S
N337        N338   1.322       .  A
N337        C341   1.345       .  A
N337       Cu345   2.073       .  S
N338        C339   1.343       .  A
N338       Cu344   2.073       .  S
C339        C340   1.387       .  A
C339        H342   1.080       .  S
C340        C341   1.387       .  A
C340        C436   1.485       .  S
C341        H343   1.082       .  S
Cu344       N347   2.072       .  S
Cu345       N355   2.073       .  S
Cu346       N348   2.069       .  S
Cu346       N354   2.070       .  S
N347        N348   1.322       .  A
N347        C351   1.346       .  A
N348        C349   1.344       .  A
C349        C350   1.381       .  A
C349        H352   1.082       .  S
C350        C351   1.382       .  A
C350        C374   1.466       .  S
C351        H353   1.082       .  S
N354        N355   1.322       .  A
N354        C358   1.343       .  A
N355        C356   1.345       .  A
C356        C357   1.386       .  A
C356        H359   1.082   1_455  S
C357        C358   1.384       .  A
C357        C388   1.479   1_455  S
C358        H360   1.082       .  S
N361        N362   1.322       .  A
N361        C365   1.346       .  A
N361       Cu369   2.074       .  S
N362        C363   1.343       .  A
N362       Cu368   2.070       .  S
C363        C364   1.382       .  A
C363        H366   1.082       .  S
C364        C365   1.384       .  A
C365        H367   1.082       .  S
Cu368       N371   2.069       .  S
Cu369       N379   2.075       .  S
Cu370       N372   2.073       .  S
Cu370       N378   2.073       .  S
N371        N372   1.322       .  A
N371        C375   1.345       .  A
N372        C373   1.345       .  A
C373        C374   1.382       .  A
C373        H376   1.082       .  S
C374        C375   1.381       .  A
C375        H377   1.082       .  S
N378        N379   1.323       .  A
N378        C382   1.345       .  A
N379        C380   1.345       .  A
C380        C381   1.383       .  A
C380        H383   1.082       .  S
C381        C382   1.382       .  A
C382        H384   1.082       .  S
C385        C386   1.404       .  A
C385        C390   1.409       .  A
C386        C387   1.399   1_554  A
C386        H391   1.083   1_554  S
C387        C388   1.409   1_556  A
C387        O392   1.371       .  S
C388        C389   1.404       .  A
C389        C390   1.399       .  A
C389        H393   1.083       .  S
C390        O394   1.371       .  S
O392        H396   0.992       .  S
O394        H395   0.992       .  S
C397        C398   1.404       .  A
C397        C402   1.411       .  A
C398        C399   1.401       .  A
C398        H403   1.083       .  S
C399        C400   1.411       .  A
C399        O404   1.372       .  S
C400        C401   1.404       .  A
C401        C402   1.401       .  A
C401        H405   1.083       .  S
C402        O406   1.372   1_655  S
O404        H408   0.992       .  S
O406        H407   0.992       .  S
C409        C410   1.403       .  A
C409        C414   1.410       .  A
C410        C411   1.399       .  A
C410        H415   1.083       .  S
C411        C412   1.411       .  A
C411        O416   1.371       .  S
C412        C413   1.406       .  A
C413        C414   1.402       .  A
C413        H417   1.083       .  S
C414        O418   1.371       .  S
O416        H420   0.992       .  S
O418        H419   0.992       .  S
C421        C422   1.405       .  A
C421        C426   1.409       .  A
C422        C423   1.402       .  A
C422        H427   1.083       .  S
C423        C424   1.412       .  A
C423        O428   1.371       .  S
C424        C425   1.405       .  A
C425        C426   1.399       .  A
C425        H429   1.082       .  S
C426        O430   1.372   1_554  S
O428        H432   0.992       .  S
O430        H431   0.992   1_556  S
C433        C434   1.403       .  A
C433        C438   1.410       .  A
C434        C435   1.399       .  A
C434        H439   1.083       .  S
C435        C436   1.411       .  A
C435        O440   1.371       .  S
C436        C437   1.405       .  A
C437        C438   1.402       .  A
C437        H441   1.083   1_554  S
C438        O442   1.371   1_554  S
O440        H444   0.992       .  S
O442        H443   0.992   1_556  S
C445        C446   1.404   1_545  A
C445        C450   1.412       .  A
C446        C447   1.401   1_565  A
C446        H451   1.083   1_554  S
C447        C448   1.411       .  A
C447        O452   1.371   1_654  S
C448        C449   1.404       .  A
C449        C450   1.400       .  A
C449        H453   1.083       .  S
C450        O454   1.371       .  S
O452        H456   0.992   1_546  S
O454        H455   0.992       .  S
C457        C458   1.405       .  A
C457        C462   1.409       .  A
C458        C459   1.402       .  A
C458        H463   1.083       .  S
C459        C460   1.411       .  A
C459        O464   1.371       .  S
C460        C461   1.406       .  A
C461        C462   1.400       .  A
C461        H465   1.082       .  S
C462        O466   1.372       .  S
O464        H468   0.992       .  S
O466        H467   0.992       .  S
C469        C470   1.401       .  A
C469        C474   1.408       .  A
C470        C471   1.400       .  A
C470        H475   1.084       .  S
C471        C472   1.408       .  A
C471        O476   1.372       .  S
C472        C473   1.401       .  A
C473        C474   1.400       .  A
C473        H477   1.084       .  S
C474        O478   1.372       .  S
O476        H480   0.992       .  S
O478        H479   0.992   1_545  S
