geometry optimzed in LAMMPS
_audit_creation_date              2020-11-30 
_audit_creation_method            'lammps2cif' 
_symmetry_space_group_name_H-M    'P1' 
_symmetry_Int_Tables_number       1 
_symmetry_cell_setting            triclinic 
loop_ 
_symmetry_equiv_pos_as_xyz 
  x,y,z 
_cell_length_a                    28.467698930082975 
_cell_length_b                    28.178326076605025 
_cell_length_c                    30.507589218258154 
_cell_angle_alpha                 90.97897856978615 
_cell_angle_beta                  86.38460864407263 
_cell_angle_gamma                 89.84291487348492 
loop_ 
_atom_site_label 
_atom_site_type_symbol 
_atom_site_fract_x 
_atom_site_fract_y 
_atom_site_fract_z 
_atom_site_charge 
O1          O  0.53527900  0.39628873  0.47814738    -0.81130
O2          O  0.47520229  0.55997057  0.60303941    -0.65820
O3          O  0.47962604  0.47502745  0.50515901    -1.12420
C4          C  0.59018474  0.58002255  0.44279048     1.05760
O5          O  0.47108487  0.62298201  0.56086170    -0.79030
O6          O  0.46962881  0.60409181  0.47437300    -0.66610
Ni7        Ni  0.47746395  0.40846005  0.51271288     1.34870
C8          C  0.46627115  0.57512639  0.44239652     0.84500
O9          O  0.42717569  0.48303645  0.58613453    -0.79560
O10         O  0.41941632  0.41529441  0.54760005    -0.89840
C11         C  0.46082109  0.60170338  0.59660919     0.84070
O12         O  0.51199050  0.40497996  0.56424037    -0.68040
O13         O  0.56526230  0.61044334  0.46542185    -0.87330
C14         C  0.53150739  0.43515210  0.58856972     0.84900
C15         C  0.40602181  0.44444955  0.57837267     1.06470
H16         H  0.55615563  0.54484322  0.53976170     0.38270
O17         O  0.52780270  0.54743303  0.52412342    -1.09990
O18         O  0.49102611  0.53725309  0.43781593    -0.66640
Ni19       Ni  0.53275900  0.50373704  0.47527448     1.26350
O20         O  0.52366927  0.47962464  0.58614527    -0.66870
O21         O  0.58547264  0.53531336  0.44677122    -0.79160
C22         C  0.54883098  0.41279293  0.44096069     0.84280
O23         O  0.53863098  0.45500750  0.43065298    -0.66340
Ni24       Ni  0.51854611  0.61293723  0.51341551     1.27450
Ni25       Ni  0.47778749  0.51552186  0.55559331     1.26060
H26         H  0.45207628  0.48254552  0.48964855     0.38830
O27         O  0.04871129  0.56480953  0.41957408    -0.81130
O28         O  0.95991630  0.41561707  0.54076300    -0.65820
O29         O  0.98205129  0.53325693  0.48298141    -1.12420
C30         C  0.07360867  0.57081235  0.59998107     1.05760
O31         O  0.94626093  0.45436836  0.60453377    -0.79030
O32         O  0.95015073  0.54832340  0.60120912    -0.66610
Ni33       Ni  0.98749564  0.53693124  0.42135960     1.34870
C34         C  0.95344345  0.58673843  0.58027986     0.84500
O35         O  0.93153668  0.44927594  0.46610941    -0.79560
O36         O  0.92719119  0.50825077  0.41858928    -0.89840
C37         C  0.93915081  0.41948482  0.57892076     0.84070
O38         O  0.01767290  0.47717974  0.41051283    -0.68040
O39         O  0.04193247  0.54664603  0.62072295    -0.87330
C40         C  0.03835928  0.44926260  0.43537687     0.84900
C41         C  0.91642058  0.46678369  0.43142624     1.06470
H42         H  0.04308589  0.47666261  0.54790374     0.38270
O43         O  0.01536508  0.49664268  0.54955703    -1.09990
O44         O  0.98586915  0.59517035  0.55069975    -0.66640
Ni45       Ni  0.03117352  0.55354125  0.51882027     1.26350
O46         O  0.02559342  0.44500703  0.47598071    -0.66870
O47         O  0.07790574  0.57203884  0.55814340    -0.79160
C48         C  0.06659703  0.59671046  0.44310748     0.84280
O49         O  0.05044415  0.60596960  0.48222268    -0.66340
Ni50       Ni  0.99507960  0.50045327  0.60937145     1.27450
Ni51       Ni  0.97218915  0.47311617  0.50914234     1.26060
H52         H  0.95416972  0.55166455  0.49140106     0.38830
O53         O  0.54111540  0.61135345  0.06696023    -0.81130
O54         O  0.45627797  0.47701709  0.93828545    -0.65820
O55         O  0.47222835  0.54972046  0.04239928    -1.12420
C56         C  0.57158378  0.42282173  0.07601902     1.05760
O57         O  0.44114506  0.41548208  0.98103166    -0.79030
O58         O  0.45111518  0.41422270  0.06672345    -0.66610
Ni59       Ni  0.48206788  0.61566287  0.04121130     1.34870
C60         C  0.44699986  0.44308029  0.09902933     0.84500
O61         O  0.42010480  0.56046840  0.96884006    -0.79560
O62         O  0.42385597  0.62361480  0.01496724    -0.89840
C63         C  0.43810578  0.43646872  0.94477967     0.84070
O64         O  0.51545563  0.62029364  0.98521622    -0.68040
O65         O  0.54570426  0.39815402  0.05174134    -0.87330
C66         C  0.52902344  0.59095649  0.95503529     0.84900
C67         C  0.40644989  0.60151701  0.98305400     1.06470
H68         H  0.53860920  0.47526043  0.99296975     0.38270
O69         O  0.50984167  0.47406327  0.01150023    -1.09990
O70         O  0.47228332  0.47994193  0.10222739    -0.66640
Ni71       Ni  0.51960359  0.50983856  0.06347828     1.26350
O72         O  0.51534936  0.54784707  0.95513908    -0.66870
O73         O  0.56635376  0.46742524  0.08231867    -0.79160
C74         C  0.54900312  0.59097648  0.10248397     0.84280
O75         O  0.53122131  0.55098930  0.11184190    -0.66340
Ni76       Ni  0.49385584  0.40932618  0.01628892     1.27450
Ni77       Ni  0.46492486  0.51612691  0.98904725     1.26060
H78         H  0.44346727  0.54533979  0.06040705     0.38830
O79         O  0.45992675  0.09850479  0.47261837    -0.81130
O80         O  0.54782549  0.95481450  0.59891763    -0.65820
O81         O  0.52820971  0.03750248  0.50271820    -1.12420
C82         C  0.43918223  0.90730687  0.45206720     1.05760
O83         O  0.56583244  0.89686015  0.55080444    -0.79030
O84         O  0.55437587  0.89834934  0.46440775    -0.66610
Ni85       Ni  0.51267998  0.10256397  0.50942052     1.34870
C86         C  0.56419488  0.93126124  0.43748269     0.84500
O87         O  0.57665886  0.04289680  0.57922390    -0.79560
O88         O  0.56460074  0.11226701  0.54577129    -0.89840
C89         C  0.56912389  0.91566388  0.58870470     0.84070
O90         O  0.47011014  0.09753849  0.56004406    -0.68040
O91         O  0.45962033  0.88220501  0.47969257    -0.87330
C92         C  0.45957940  0.06641468  0.58870735     0.84900
C93         C  0.58499195  0.08678645  0.57312200     1.06470
H94         H  0.46461576  0.95734961  0.54012772     0.38270
O95         O  0.49471084  0.95732371  0.52360372    -1.09990
O96         O  0.54209469  0.97073338  0.43815766    -0.66640
Ni97       Ni  0.48767981  0.99565372  0.47313691     1.26350
O98         O  0.48146256  0.02634967  0.58951949    -0.66870
O99         O  0.44766189  0.95118464  0.44550968    -0.79160
C100        C  0.45759886  0.07862121  0.43497859     0.84280
O101        O  0.47800961  0.03903532  0.42603890    -0.66340
Ni102      Ni  0.51212858  0.89243899  0.51534653     1.27450
Ni103      Ni  0.53558148  0.99922043  0.55292519     1.26060
H104        H  0.55845659  0.03717433  0.48646127     0.38830
O105        O  0.05195178  0.45998303  0.90728413    -0.81130
O106        O  0.90392771  0.55671609  0.04013073    -0.65820
O107        O  0.01658652  0.53252900  0.96658079    -1.12420
C108        C  0.06705434  0.45121083  0.08681523     1.05760
O109        O  0.94480557  0.57297861  0.09825190    -0.79030
O110        O  0.03521436  0.57665244  0.07507311    -0.66610
Ni111      Ni  0.01298907  0.51595283  0.90561029     1.34870
C112        C  0.07704255  0.56783445  0.06146719     0.84500
O113        O  0.93040805  0.58270572  0.95911671    -0.79560
O114        O  0.97391405  0.57014364  0.89608382    -0.89840
C115        C  0.90817364  0.57715029  0.07718826     0.84070
O116        O  0.95805258  0.47676743  0.91032483    -0.68040
O117        O  0.04639062  0.48569424  0.10748569    -0.87330
C118        C  0.92559436  0.46960659  0.94000497     0.84900
C119        C  0.93886037  0.58885405  0.91806228     1.06470
H120        H  0.96821330  0.47407112  0.04549344     0.38270
O121        O  0.98665538  0.50264306  0.04189467    -1.09990
O122        O  0.08552544  0.53511848  0.03210470    -0.66640
Ni123      Ni  0.04263668  0.48786326  0.00546265     1.26350
O124        O  0.92433222  0.48967266  0.97795379    -0.66870
O125        O  0.06396470  0.44284967  0.04594653    -0.79160
C126        C  0.08897010  0.45185824  0.92715394     0.84280
O127        O  0.09486964  0.46979010  0.96508519    -0.66340
Ni128      Ni  0.99531360  0.52854905  0.09870621     1.27450
Ni129      Ni  0.95849210  0.54336256  0.00124753     1.26060
H130        H  0.03475492  0.56138774  0.96773537     0.38830
O131        O  0.11567280  0.05926470  0.45840092    -0.81130
O132        O  0.98769471  0.95811189  0.58765118    -0.65820
O133        O  0.06059681  0.98640034  0.48420551    -1.12420
C134        C  0.93167206  0.09105835  0.46141729     1.05760
O135        O  0.92617923  0.95025443  0.54715406    -0.79030
O136        O  0.91629661  0.98089809  0.46564781    -0.66610
Ni137      Ni  0.12525904  0.99908147  0.48356596     1.34870
C138        C  0.94482097  0.97266267  0.43276988     0.84500
O139        O  0.07285769  0.92794555  0.55596017    -0.79560
O140        O  0.13715069  0.93982164  0.51035105    -0.89840
C141        C  0.94936496  0.93794469  0.57947195     0.84070
O142        O  0.12803690  0.02962854  0.53926558    -0.68040
O143        O  0.91029004  0.07132138  0.49439165    -0.87330
C144        C  0.09884342  0.03706913  0.57172741     0.84900
C145        C  0.11603582  0.91995226  0.54334297     1.06470
H146        H  0.98924287  0.04955742  0.53749252     0.38270
O147        O  0.98558398  0.02166907  0.51917880    -1.09990
O148        O  0.98738504  0.98696599  0.43049191    -0.66640
Ni149      Ni  0.01873319  0.03432545  0.46521000     1.26350
O150        O  0.05694722  0.02118301  0.57356437    -0.66870
O151        O  0.97408876  0.08087803  0.44794773    -0.79160
C152        C  0.09927344  0.06363735  0.42106508     0.84280
O153        O  0.05831840  0.04858490  0.41417661    -0.66340
Ni154      Ni  0.92032154  0.01134613  0.52131471     1.27450
Ni155      Ni  0.02736529  0.97364117  0.53789035     1.26060
H156        H  0.05768966  0.95858195  0.46562544     0.38830
O157        O  0.45567041  0.89628960  0.05404380    -0.81130
O158        O  0.55814881  0.05084721  0.93531282    -0.65820
O159        O  0.52732493  0.96062152  0.02600142    -1.12420
C160        C  0.42442848  0.08077017  0.08058180     1.06400
O161        O  0.56040106  0.10999882  0.98389903    -0.79030
O162        O  0.53576462  0.10107873  0.06831346    -0.66610
Ni163      Ni  0.51050741  0.89695710  0.01460447     1.34870
C164        C  0.54911383  0.06716819  0.09148344     0.84500
O165        O  0.58990150  0.96396950  0.95353377    -0.79560
O166        O  0.56359307  0.89168792  0.97483069    -0.89840
C167        C  0.57285978  0.09169631  0.94669673     0.84070
O168        O  0.47085357  0.90941764  0.96861829    -0.68040
O169        O  0.44275564  0.10874816  0.05211491    -0.87330
C170        C  0.47048506  0.94096883  0.93962089     0.84900
C171        C  0.59210454  0.91892106  0.95381303     1.06470
H172        H  0.46504874  0.03773620  0.99050664     0.38270
O173        O  0.49246300  0.04021795  0.00751770    -1.09990
O174        O  0.53162771  0.02557807  0.08997960    -0.66640
Ni175      Ni  0.48188635  0.99903197  0.05648921     1.26350
O176        O  0.49738301  0.97722499  0.93877029    -0.66870
O177        O  0.43748463  0.03867995  0.08640331    -0.79160
C178        C  0.44906666  0.91496241  0.09191197     0.84280
O179        O  0.46883905  0.95373521  0.10196763    -0.66340
Ni180      Ni  0.50099633  0.10621486  0.01753406     1.27450
Ni181      Ni  0.54164163  0.00352313  0.97902562     1.26060
H182        H  0.55487616  0.95891653  0.04286666     0.38830
O183        O  0.97528784  0.08441338  0.11410220    -0.81130
O184        O  0.04290462  0.91367230  0.98728830    -0.65820
O185        O  0.02978481  0.03083593  0.05232424    -1.12420
C186        C  0.92545965  0.06915848  0.94087202     1.05760
O187        O  0.04308946  0.95161319  0.92421317    -0.79030
O188        O  0.02525369  0.04211081  0.91525554    -0.66610
Ni189      Ni  0.02204682  0.03549382  0.11414271     1.34870
C190        C  0.04736290  0.07158038  0.93821296     0.84500
O191        O  0.08236217  0.94645371  0.05785991    -0.79560
O192        O  0.06715494  0.98620213  0.12142060    -0.89840
C193        C  0.05933635  0.91971986  0.94792356     0.84070
O194        O  0.97273199  0.99140214  0.11786446    -0.68040
O195        O  0.93105859  0.02650502  0.92718559    -0.87330
C196        C  0.96373012  0.95339715  0.09737291     0.84900
C197        C  0.08840136  0.95369960  0.09836182     1.06470
H198        H  0.95617950  0.98095474  0.00037047     0.38270
O199        O  0.98535075  0.99567836  0.99012715    -1.09990
O200        O  0.03632014  0.08004250  0.97877628    -0.66640
Ni201      Ni  0.98408099  0.05758660  0.01601289     1.26350
O202        O  0.98636019  0.93964177  0.06162319    -0.66870
O203        O  0.94233395  0.08483170  0.97595946    -0.79160
C204        C  0.96359248  0.11619976  0.08787878     0.84280
O205        O  0.97949012  0.11671216  0.04789665    -0.66340
Ni206      Ni  0.98660888  0.98867444  0.92837124     1.27450
Ni207      Ni  0.03439252  0.97036879  0.02311093     1.26060
H208        H  0.05954567  0.04626222  0.04553772     0.38830
O209        O  0.78280365  0.82371376  0.15657307    -0.81130
O210        O  0.73846837  0.67888513  0.29709920    -0.65820
O211        O  0.73133214  0.79030952  0.23041352    -1.12420
C212        C  0.84602550  0.84822680  0.32296648     1.05760
O213        O  0.73351182  0.72184428  0.35900573    -0.79030
O214        O  0.73199085  0.81713809  0.35728744    -0.66610
Ni215      Ni  0.72579417  0.78904670  0.16917196     1.34870
C216        C  0.71878689  0.85008699  0.33284133     0.84500
O217        O  0.68544648  0.70247115  0.23172141    -0.79560
O218        O  0.66939019  0.75314896  0.17810329    -0.89840
C219        C  0.72467823  0.68434971  0.33712948     0.84070
O220        O  0.76015715  0.73208464  0.15516021    -0.68040
O221        O  0.82853497  0.81868616  0.35064351    -0.87330
C222        C  0.78268000  0.70339179  0.17764193     0.84900
C223        C  0.66287973  0.71450415  0.19881225     1.06470
H224        H  0.81360121  0.74925993  0.28136108     0.38270
O225        O  0.78425194  0.76534000  0.28962097    -1.09990
O226        O  0.73697726  0.85678166  0.29401676    -0.66640
Ni227      Ni  0.78275081  0.82124717  0.25566908     1.26350
O228        O  0.78031053  0.70359921  0.21958719    -0.66870
O229        O  0.83357054  0.85147836  0.28369658    -0.79160
C230        C  0.79871664  0.86015677  0.17559026     0.84280
O231        O  0.78395084  0.87155947  0.21467193    -0.66340
Ni232      Ni  0.78088353  0.77033334  0.35182012     1.27450
Ni233      Ni  0.73485752  0.73322415  0.26147029     1.26060
H234        H  0.70282156  0.80563446  0.24190742     0.38830
O235        O  0.78977603  0.37887826  0.80847356    -0.81130
O236        O  0.72186490  0.22774382  0.67850210    -0.65820
O237        O  0.72762593  0.31230699  0.77679497    -1.12420
C238        C  0.82877988  0.19252025  0.82811609     1.05760
O239        O  0.71355892  0.16633477  0.72224333    -0.79030
O240        O  0.72110922  0.16867173  0.80762061    -0.66610
Ni241      Ni  0.73891963  0.37812102  0.76918051     1.34870
C242        C  0.70419583  0.19893483  0.83547875     0.84500
O243        O  0.67957792  0.31085371  0.69949549    -0.79560
O244        O  0.68811184  0.38309635  0.73003979    -0.89840
C245        C  0.70746074  0.18596852  0.68601984     0.84070
O246        O  0.78400476  0.37433203  0.71982492    -0.68040
O247        O  0.81612008  0.16720738  0.79601803    -0.87330
C248        C  0.79450271  0.34236163  0.69094303     0.84900
C249        C  0.66839783  0.35478697  0.70357439     1.06470
H250        H  0.80156452  0.24113008  0.73950672     0.38270
O251        O  0.77130502  0.23634975  0.75493099    -1.09990
O252        O  0.71883339  0.24192986  0.83808426    -0.66640
Ni253      Ni  0.77140011  0.27483386  0.80696323     1.26350
O254        O  0.77549660  0.30167202  0.69097780    -0.66870
O255        O  0.81446569  0.23497563  0.83612355    -0.79160
C256        C  0.79175067  0.36110583  0.84657735     0.84280
O257        O  0.77465360  0.32006066  0.85487324    -0.66340
Ni258      Ni  0.76533299  0.16981410  0.75866274     1.27450
Ni259      Ni  0.72540760  0.27221680  0.72623256     1.26060
H260        H  0.69723476  0.31025924  0.79262587     0.38830
O261        O  0.22263160  0.86695261  0.71049274    -0.81130
O262        O  0.29120864  0.74224307  0.86025936    -0.65820
O263        O  0.28530926  0.81002170  0.75436660    -1.12420
C264        C  0.18797420  0.68091841  0.71419216     1.05760
O265        O  0.30012994  0.67324573  0.82483307    -0.79030
O266        O  0.29427401  0.66127495  0.73856226    -0.66610
Ni267      Ni  0.26804408  0.87537675  0.75502771     1.34870
C268        C  0.31231416  0.68782333  0.70893200     0.84500
O269        O  0.33256431  0.82177879  0.83023037    -0.79560
O270        O  0.31357092  0.89004003  0.79785596    -0.89840
C271        C  0.30303174  0.69888948  0.85907962     0.84070
O272        O  0.21819651  0.87331341  0.80039765    -0.68040
O273        O  0.19941159  0.66050622  0.74887316    -0.87330
C274        C  0.21170628  0.84733253  0.83391992     0.84900
C275        C  0.33747024  0.86626411  0.82406516     1.06470
H276        H  0.21215430  0.74375257  0.79761808     0.38270
O277        O  0.24283584  0.73675147  0.78370713    -1.09990
O278        O  0.29906434  0.73057902  0.70372188    -0.66640
Ni279      Ni  0.24463895  0.76593858  0.72805887     1.26350
O280        O  0.23699129  0.81133581  0.84048061    -0.66870
O281        O  0.20393241  0.72106352  0.70210601    -0.79160
C282        C  0.22449949  0.84012686  0.67621544     0.84280
O283        O  0.24485272  0.80007518  0.67519438    -0.66340
Ni284      Ni  0.24944925  0.66992070  0.78676539     1.27450
Ni285      Ni  0.28779960  0.77806953  0.80834503     1.26060
H286        H  0.31617714  0.80780241  0.73934431     0.38830
O287        O  0.29882758  0.29397789  0.66940844    -0.81130
O288        O  0.22678062  0.14306922  0.80677778    -0.65820
O289        O  0.23998193  0.24687643  0.72884765    -1.12420
C290        C  0.33739921  0.30903353  0.83804311     1.05760
O291        O  0.22215635  0.19246943  0.86428167    -0.79030
O292        O  0.23856674  0.28487128  0.86630659    -0.66610
Ni293      Ni  0.26174629  0.23743667  0.66972875     1.34870
C294        C  0.21618395  0.31065649  0.84100525     0.84500
O295        O  0.19095697  0.16300910  0.72975656    -0.79560
O296        O  0.22469271  0.18050184  0.66350797    -0.89840
C297        C  0.20931493  0.15494117  0.84489970     0.84070
O298        O  0.31624944  0.20304828  0.68372406    -0.68040
O299        O  0.33252035  0.26884162  0.85625904    -0.87330
C300        C  0.31654019  0.16293063  0.70174494     0.84900
C301        C  0.19487828  0.15786163  0.68811943     1.06470
H302        H  0.31270190  0.21188380  0.78837060     0.38270
O303        O  0.28229537  0.22591362  0.79636672    -1.09990
O304        O  0.22402110  0.30851930  0.79921173    -0.66640
Ni305      Ni  0.27921046  0.28355859  0.76493771     1.26350
O306        O  0.28615850  0.15278938  0.73306243    -0.66870
O307        O  0.31860114  0.31959291  0.80256477    -0.79160
C308        C  0.29105092  0.33406597  0.68826762     0.84280
O309        O  0.27627877  0.33760980  0.72837194    -0.66340
Ni310      Ni  0.27784337  0.22983156  0.85824675     1.27450
Ni311      Ni  0.23634617  0.19244610  0.76470715     1.26060
H312        H  0.20914433  0.26137183  0.72923904     0.38830
O313        O  0.30225590  0.83729496  0.30437745    -0.81130
O314        O  0.23833364  0.69595528  0.16436246    -0.65820
O315        O  0.24263252  0.76840875  0.27138937    -1.12420
C316        C  0.33987580  0.64571657  0.31658177     1.05760
O317        O  0.22342862  0.63139432  0.20425808    -0.79030
O318        O  0.22156083  0.63479211  0.29385718    -0.66610
Ni319      Ni  0.24545086  0.83486263  0.27391064     1.34870
C320        C  0.21631302  0.66304546  0.32681959     0.84500
O321        O  0.20165862  0.78154981  0.18999255    -0.79560
O322        O  0.18944120  0.83668183  0.24327251    -0.89840
C323        C  0.21886513  0.65530480  0.16937297     0.84070
O324        O  0.28277696  0.84300016  0.22077545    -0.68040
O325        O  0.31685428  0.61904030  0.29120324    -0.87330
C326        C  0.30506028  0.81488563  0.19389580     0.84900
C327        C  0.18393817  0.82099509  0.20456670     1.06470
H328        H  0.31479870  0.69526709  0.22698788     0.38270
O329        O  0.28464606  0.69392475  0.24333029    -1.09990
O330        O  0.24141532  0.69977667  0.33153850    -0.66640
Ni331      Ni  0.28983307  0.73101753  0.29562671     1.26350
O332        O  0.29616309  0.77037823  0.19095767    -0.66870
O333        O  0.33596765  0.69075854  0.31838315    -0.79160
C334        C  0.31297975  0.81431424  0.33773130     0.84280
O335        O  0.29703772  0.77295435  0.34476237    -0.66340
Ni336      Ni  0.27033316  0.62851514  0.24789258     1.27450
Ni337      Ni  0.24203906  0.73586330  0.21636804     1.26060
H338        H  0.21287247  0.76100335  0.28660468     0.38830
O339        O  0.69463272  0.33922022  0.22049325    -0.81130
O340        O  0.77460764  0.21164583  0.35543388    -0.65820
O341        O  0.76314771  0.28174995  0.25142990    -1.12420
C342        C  0.68640268  0.14482062  0.20197954     1.05760
O343        O  0.80210382  0.15070024  0.31418174    -0.79030
O344        O  0.80620904  0.15440417  0.22666383    -0.66610
Ni345      Ni  0.74925938  0.34710412  0.25267818     1.34870
C346        C  0.80782989  0.18275858  0.19475189     0.84500
O347        O  0.80264595  0.29838851  0.33246308    -0.79560
O348        O  0.80235525  0.35921355  0.28598127    -0.89840
C349        C  0.80124292  0.17553708  0.34958959     0.84070
O350        O  0.70878794  0.34893018  0.30432500    -0.68040
O351        O  0.71383594  0.12251012  0.22614969    -0.87330
C352        C  0.69196582  0.31777672  0.33026917     0.84900
C353        C  0.81517736  0.33997417  0.32080385     1.06470
H354        H  0.70134717  0.19898187  0.29226721     0.38270
O355        O  0.73161423  0.20202075  0.27637987    -1.09990
O356        O  0.77594456  0.21324623  0.18904269    -0.66640
Ni357      Ni  0.72251235  0.23738257  0.22492144     1.26350
O358        O  0.70923289  0.27597167  0.33224044    -0.66870
O359        O  0.68371812  0.19000598  0.20056845    -0.79160
C360        C  0.69289882  0.31849233  0.18354366     0.84280
O361        O  0.71072298  0.27745755  0.17655985    -0.66340
Ni362      Ni  0.75731448  0.13984117  0.27015951     1.27450
Ni363      Ni  0.76734308  0.24939187  0.30494585     1.26060
H364        H  0.79395213  0.27925274  0.23635617     0.38830
O365        O  0.21509476  0.31821194  0.36896506    -0.81130
O366        O  0.28406334  0.17615599  0.23081854    -0.65820
O367        O  0.28003788  0.28633346  0.30274577    -1.12420
C368        C  0.18447442  0.34124375  0.19171765     1.05760
O369        O  0.30429787  0.22022918  0.17359864    -0.79030
O370        O  0.30226944  0.31529487  0.17696702    -0.66610
Ni371      Ni  0.27112040  0.28002530  0.36480002     1.34870
C372        C  0.30699423  0.34985278  0.20351173     0.84500
O373        O  0.32540063  0.19630911  0.30409822    -0.79560
O374        O  0.32606197  0.24011534  0.36619913    -0.89840
C375        C  0.29981327  0.18025760  0.19170106     0.84070
O376        O  0.23206241  0.22496958  0.36656953    -0.68040
O377        O  0.20881730  0.31308138  0.16650134    -0.87330
C378        C  0.21668119  0.19840221  0.33678738     0.84900
C379        C  0.33957180  0.20431376  0.34238572     1.06470
H380        H  0.21076851  0.24654455  0.23507689     0.38270
O381        O  0.24075729  0.26260580  0.23319862    -1.09990
O382        O  0.28266307  0.35508981  0.24001104    -0.66640
Ni383      Ni  0.23339395  0.31712509  0.26969871     1.26350
O384        O  0.22998187  0.20084107  0.29677521    -0.66870
O385        O  0.18834847  0.34550034  0.23323248    -0.79160
C386        C  0.20280264  0.35566483  0.34992659     0.84280
O387        O  0.22150758  0.36700593  0.31244366    -0.66340
Ni388      Ni  0.25643691  0.26704699  0.17254578     1.27450
Ni389      Ni  0.28314049  0.22986166  0.26794884     1.26060
H390        H  0.30969019  0.30251019  0.29751933     0.38830
O391        O  0.78163916  0.63803331  0.69387290    -0.81130
O392        O  0.73351275  0.77727643  0.84405324    -0.65820
O393        O  0.72484557  0.70389329  0.74071056    -1.12420
C394        C  0.83970322  0.81532676  0.68717540     1.05760
O395        O  0.72651768  0.84320832  0.80594518    -0.79030
O396        O  0.73465593  0.85217340  0.71925737    -0.66610
Ni397      Ni  0.73235195  0.63667451  0.74051196     1.34870
C398        C  0.71168708  0.82654886  0.69349787     0.84500
O399        O  0.68226662  0.70041985  0.82518762    -0.79560
O400        O  0.68355413  0.63097827  0.78753600    -0.89840
C401        C  0.72068412  0.81990781  0.84091476     0.84070
O402        O  0.78047979  0.63138738  0.78173064    -0.68040
O403        O  0.82985448  0.83973655  0.72196090    -0.87330
C404        C  0.79485450  0.65972301  0.81075504     0.84900
C405        C  0.66768539  0.65788448  0.81944700     1.06470
H406        H  0.80701511  0.76334409  0.77097940     0.38270
O407        O  0.77670875  0.77276608  0.76140443    -1.09990
O408        O  0.72019116  0.78198634  0.68820969    -0.66640
Ni409      Ni  0.77030430  0.74096280  0.70763064     1.26350
O410        O  0.77809554  0.70099389  0.81770714    -0.66870
O411        O  0.81739203  0.77812935  0.67638637    -0.79160
C412        C  0.78903985  0.66458115  0.66061318     0.84280
O413        O  0.76604444  0.70258631  0.65687700    -0.66340
Ni414      Ni  0.77771056  0.83960644  0.76361702     1.27450
Ni415      Ni  0.72942932  0.73800837  0.79397736     1.26060
H416        H  0.69407513  0.71015574  0.73037283     0.38830
C417        C  0.84804231  0.17833379  0.16191325    -0.00390
C418        C  0.84060091  0.15608463  0.12163220    -0.12270
C419        C  0.87858103  0.13991744  0.09384484     0.01840
C420        C  0.92535891  0.14830382  0.10516745    -0.00480
C421        C  0.93255259  0.17441962  0.14387677    -0.12210
C422        C  0.89440211  0.18877864  0.17253580     0.01730
H423        H  0.80505516  0.14670860  0.11409272     0.14710
H424        H  0.96812869  0.17953029  0.15383556     0.14710
C425        C  0.90363007  0.21120579  0.21402015     0.36360
C426        C  0.86797117  0.10759920  0.05866531     0.36270
N427        N  0.91089691  0.22902556  0.24736628    -0.43980
N428        N  0.85778166  0.08077431  0.03177958    -0.43980
C429        C  0.11872114  0.92086577  0.12138765    -0.00390
C430        C  0.12013532  0.87244415  0.10911193    -0.12270
C431        C  0.14075156  0.83864327  0.13537502     0.01840
C432        C  0.15991214  0.85325441  0.17503690    -0.00480
C433        C  0.16041907  0.90205823  0.18575464    -0.12210
C434        C  0.14064521  0.93561437  0.15945032     0.01730
H435        H  0.10334059  0.86063969  0.07992630     0.14710
H436        H  0.17707445  0.91458617  0.21478060     0.14710
C437        C  0.14390202  0.98506874  0.17233571     0.36360
C438        C  0.14037761  0.78944219  0.12141562     0.36270
N439        N  0.14656547  0.02460654  0.18276503    -0.43980
N440        N  0.14014592  0.75005948  0.11001800    -0.43980
C441        C  0.17032336  0.12844400  0.86774394    -0.00390
C442        C  0.16551568  0.13231893  0.91396248    -0.12270
C443        C  0.12541022  0.11596467  0.93790510     0.01840
C444        C  0.08854146  0.09503525  0.91552744    -0.00480
C445        C  0.09354232  0.09106453  0.86941909    -0.12210
C446        C  0.13381263  0.10674183  0.84561352     0.01730
H447        H  0.19323745  0.14882203  0.93165309     0.14710
H448        H  0.06583857  0.07495981  0.85143007     0.14710
C449        C  0.13511650  0.09997413  0.79869666     0.36360
C450        C  0.12438397  0.11968291  0.98523474     0.36270
N451        N  0.13337640  0.09228503  0.76149686    -0.43980
N452        N  0.12407477  0.12261653  0.02313965    -0.43980
C453        C  0.17475632  0.86155269  0.86818740    -0.00390
C454        C  0.17689066  0.90747482  0.88605244    -0.12270
C455        C  0.14210228  0.92428915  0.91683729     0.01840
C456        C  0.10277721  0.89585166  0.92920796    -0.00480
C457        C  0.10183141  0.84877211  0.91343535    -0.12210
C458        C  0.13812649  0.83110410  0.88382195     0.01730
H459        H  0.20589501  0.93047902  0.87573316     0.14710
H460        H  0.07172864  0.82667913  0.92235809     0.14710
C461        C  0.13561170  0.78260551  0.86826660     0.36360
C462        C  0.14718102  0.97153151  0.93487753     0.36270
N463        N  0.13342871  0.74355247  0.85622403    -0.43980
N464        N  0.15203009  0.00908066  0.94974455    -0.43980
C465        C  0.90216703  0.10292250  0.91254002    -0.00390
C466        C  0.87479531  0.14061592  0.93114047    -0.12270
C467        C  0.85300762  0.17308033  0.90440820     0.01840
C468        C  0.85960552  0.16861513  0.85818048    -0.00480
C469        C  0.89000877  0.13326354  0.83999388    -0.12210
C470        C  0.91102573  0.10058905  0.86638765     0.01730
H471        H  0.86933395  0.14404218  0.96649820     0.14710
H472        H  0.89603148  0.12999480  0.80458051     0.14710
C473        C  0.94243062  0.06580252  0.84483774     0.36360
C474        C  0.82191107  0.20849382  0.92521944     0.36270
N475        N  0.96753571  0.03808208  0.82736779    -0.43980
N476        N  0.79696930  0.23682138  0.94196679    -0.43980
C477        C  0.92391763  0.92559750  0.11718447    -0.00390
C478        C  0.89337897  0.90170841  0.09018767    -0.12270
C479        C  0.85169572  0.88119334  0.10804517     0.01840
C480        C  0.83968874  0.88493852  0.15393087    -0.00480
C481        C  0.87080460  0.90815999  0.18076385    -0.12210
C482        C  0.91273300  0.92754342  0.16319861     0.01730
H483        H  0.90135251  0.90024576  0.05494760     0.14710
H484        H  0.86319234  0.90998403  0.21603401     0.14710
C485        C  0.94410692  0.94818008  0.19373648     0.36360
C486        C  0.82177512  0.85736707  0.07818211     0.36270
N487        N  0.96909784  0.96470531  0.21825815    -0.43980
N488        N  0.79804989  0.83810094  0.05414136    -0.43980
C489        C  0.58853323  0.07833742  0.11951961    -0.00390
C490        C  0.62281618  0.10979521  0.10220477    -0.12270
C491        C  0.65749240  0.12813532  0.12778425     0.01840
C492        C  0.65690130  0.11733279  0.17264138    -0.00480
C493        C  0.62542278  0.08271586  0.18947077    -0.12210
C494        C  0.59175142  0.06239353  0.16290006     0.01730
H495        H  0.62169605  0.12126742  0.06858355     0.14710
H496        H  0.62579478  0.07311260  0.22371303     0.14710
C497        C  0.55949595  0.02769823  0.18158286     0.36360
C498        C  0.69290010  0.15870050  0.10730634     0.36270
N499        N  0.53354589  0.99992854  0.19655735    -0.43980
N500        N  0.72095453  0.18331167  0.09070770    -0.43980
C501        C  0.32221890  0.14041188  0.16950602    -0.00390
C502        C  0.36599097  0.12850389  0.18411183    -0.12270
C503        C  0.39996108  0.10901600  0.15486713     0.01840
C504        C  0.38859333  0.09880941  0.11151728    -0.00480
C505        C  0.34304434  0.10565292  0.09828342    -0.12210
C506        C  0.30945391  0.12688973  0.12733787     0.01730
H507        H  0.37564108  0.14029986  0.21642134     0.14710
H508        H  0.33451494  0.09635735  0.06506450     0.14710
C509        C  0.26327159  0.13723630  0.11279357     0.36360
C510        C  0.44750287  0.10620113  0.16850151     0.36270
N511        N  0.22615210  0.14537368  0.10133632    -0.43980
N512        N  0.48539621  0.10573674  0.18005023    -0.43980
C513        C  0.41399716  0.89194647  0.12205139    -0.00390
C514        C  0.42403187  0.84676266  0.13808817    -0.12270
C515        C  0.38879651  0.81965497  0.16012182     0.01840
C516        C  0.34237889  0.83742673  0.16543636    -0.00480
C517        C  0.33249914  0.88234896  0.14878087    -0.12210
C518        C  0.36757054  0.90942153  0.12716770     0.01730
H519        H  0.45942292  0.83249844  0.13303712     0.14710
H520        H  0.29695954  0.89650708  0.15283916     0.14710
C521        C  0.35425997  0.95393343  0.10870506     0.36360
C522        C  0.40157086  0.77498950  0.17861299     0.36270
N523        N  0.34262352  0.98928862  0.09392908    -0.43980
N524        N  0.41196324  0.73930993  0.19362554    -0.43980
C525        C  0.62706405  0.89496429  0.92590341    -0.00390
C526        C  0.61022768  0.86004845  0.89794970    -0.12270
C527        C  0.64117851  0.83293739  0.87170433     0.01840
C528        C  0.68962122  0.84024048  0.87444284    -0.00480
C529        C  0.70686657  0.87512646  0.90231026    -0.12210
C530        C  0.67548213  0.90304634  0.92831370     0.01730
H531        H  0.57261564  0.85476356  0.89598066     0.14710
H532        H  0.74442363  0.88152004  0.90247272     0.14710
C533        C  0.69336645  0.93913581  0.95696480     0.36360
C534        C  0.62231933  0.80106684  0.83958138     0.36270
N535        N  0.70772468  0.96815295  0.97980659    -0.43980
N536        N  0.60684564  0.77629048  0.81354224    -0.43980
C537        C  0.60666792  0.11921731  0.91785092    -0.00390
C538        C  0.59360943  0.13472701  0.87684398    -0.12270
C539        C  0.62333431  0.16453686  0.85098879     0.01840
C540        C  0.66663667  0.18028508  0.86637664    -0.00480
C541        C  0.67931207  0.16524145  0.90755165    -0.12210
C542        C  0.65014106  0.13477897  0.93300746     0.01730
H543        H  0.56014093  0.12365612  0.86503381     0.14710
H544        H  0.71361747  0.17469629  0.91855388     0.14710
C545        C  0.66779129  0.11656005  0.97273051     0.36360
C546        C  0.60926966  0.17777718  0.80819304     0.36270
N547        N  0.68314314  0.10143068  0.00383198    -0.43980
N548        N  0.59802780  0.18843897  0.77390259    -0.43980
C549        C  0.43666561  0.93317423  0.90551348    -0.00390
C550        C  0.45260852  0.91144759  0.86554465    -0.12270
C551        C  0.42065580  0.89073929  0.83766183     0.01840
C552        C  0.37196397  0.89200432  0.84963561    -0.00480
C553        C  0.35591114  0.91599680  0.88833556    -0.12210
C554        C  0.38780634  0.93609696  0.91643640     0.01730
H555        H  0.49013675  0.90799193  0.85746624     0.14710
H556        H  0.31848855  0.91714377  0.89759128     0.14710
C557        C  0.36980158  0.95746926  0.95746789     0.36360
C558        C  0.43863150  0.86689622  0.79780274     0.36270
N559        N  0.35537715  0.97458093  0.99036084    -0.43980
N560        N  0.45310484  0.84784579  0.76583331    -0.43980
C561        C  0.16546181  0.12276001  0.66647173    -0.00390
C562        C  0.12056263  0.13589369  0.65414358    -0.12270
C563        C  0.09586291  0.10662995  0.62577421     0.01840
C564        C  0.11674493  0.06407836  0.60904430    -0.00480
C565        C  0.16015276  0.04969660  0.62394705    -0.12210
C566        C  0.18440865  0.07843323  0.65255584     0.01730
H567        H  0.10589614  0.17001815  0.66488103     0.14710
H568        H  0.17607324  0.01659989  0.61174315     0.14710
C569        C  0.22932775  0.06221429  0.66613364     0.36360
C570        C  0.05107709  0.12256656  0.61177137     0.36270
N571        N  0.26502723  0.04852843  0.67710820    -0.43980
N572        N  0.01510826  0.13528295  0.60059677    -0.43980
C573        C  0.12783288  0.09017840  0.38843706    -0.00390
C574        C  0.10747975  0.12787311  0.36679934    -0.12270
C575        C  0.13607186  0.16286484  0.34706516     0.01840
C576        C  0.18513019  0.15998828  0.34974845    -0.00480
C577        C  0.20544360  0.11980893  0.36684645    -0.12210
C578        C  0.17732395  0.08488602  0.38626943     0.01730
H579        H  0.06961113  0.13217021  0.36845613     0.14710
H580        H  0.24344158  0.11669346  0.36660040     0.14710
C581        C  0.20026478  0.04564365  0.40633045     0.36360
C582        C  0.11458223  0.20222198  0.32611816     0.36270
N583        N  0.21876138  0.01455366  0.42269817    -0.43980
N584        N  0.09741590  0.23356836  0.30894681    -0.43980
C585        C  0.87704888  0.83414760  0.65710469    -0.00390
C586        C  0.91377333  0.85967132  0.67522246    -0.12270
C587        C  0.94088373  0.89150783  0.64991027     0.01840
C588        C  0.93103470  0.89783784  0.60567418    -0.00480
C589        C  0.89869893  0.86744558  0.58639526    -0.12210
C590        C  0.87149775  0.83592254  0.61166106     0.01730
H591        H  0.91889105  0.85742523  0.71007475     0.14710
H592        H  0.89226772  0.87046382  0.55187431     0.14710
C593        C  0.83470804  0.81026692  0.59095922     0.36360
C594        C  0.97553494  0.91958033  0.67115783     0.36270
N595        N  0.80509780  0.78988613  0.57447040    -0.43980
N596        N  0.00336235  0.94194786  0.68823294    -0.43980
C597        C  0.90367445  0.12379618  0.43515474    -0.00390
C598        C  0.86000714  0.14117002  0.45344318    -0.12270
C599        C  0.82622665  0.16013588  0.42688192     0.01840
C600        C  0.83660884  0.16372488  0.38131323    -0.00480
C601        C  0.88151813  0.15043417  0.36373295    -0.12210
C602        C  0.91449915  0.12980737  0.38957814     0.01730
H603        H  0.85060973  0.13645928  0.48809276     0.14710
H604        H  0.88985181  0.15325878  0.32864986     0.14710
C605        C  0.95614295  0.10991985  0.36666250     0.36360
C606        C  0.77970202  0.17002224  0.44640588     0.36270
N607        N  0.98872785  0.09335746  0.34753691    -0.43980
N608        N  0.74236087  0.17688001  0.46250444    -0.43980
C609        C  0.19971691  0.85509223  0.63788619    -0.00390
C610        C  0.15520186  0.83608206  0.63081413    -0.12270
C611        C  0.12774323  0.85443670  0.59831006     0.01840
C612        C  0.14557071  0.89156614  0.57161309    -0.00480
C613        C  0.19154183  0.90811426  0.57717198    -0.12210
C614        C  0.21821329  0.89079874  0.61034608     0.01730
H615        H  0.14106232  0.80833485  0.65198933     0.14710
H616        H  0.20565243  0.93711165  0.55751092     0.14710
C617        C  0.26371720  0.91151863  0.61667447     0.36360
C618        C  0.08134055  0.83524172  0.59354923     0.36270
N619        N  0.30009620  0.92822001  0.62183220    -0.43980
N620        N  0.04412183  0.81989231  0.58973419    -0.43980
C621        C  0.87832485  0.88388723  0.33989601    -0.00390
C622        C  0.85864891  0.92792371  0.35245536    -0.12270
C623        C  0.88145080  0.95859282  0.38051587     0.01840
C624        C  0.92565798  0.94587254  0.39575255    -0.00480
C625        C  0.94750956  0.90371895  0.37975731    -0.12210
C626        C  0.92377671  0.87232929  0.35242881     0.01730
H627        H  0.82350924  0.93673491  0.34318406     0.14710
H628        H  0.98142981  0.89370377  0.39109706     0.14710
C629        C  0.94571772  0.82778023  0.33897922     0.36360
C630        C  0.85707195  0.00157092  0.39526278     0.36270
N631        N  0.96341379  0.79214729  0.32797135    -0.43980
N632        N  0.83673872  0.03550106  0.40710775    -0.43980
C633        C  0.11495957  0.59148060  0.08669387    -0.00390
C634        C  0.15738517  0.60907596  0.06664457    -0.12270
C635        C  0.19151470  0.63192468  0.09197628     0.01840
C636        C  0.18402594  0.63641610  0.13829198    -0.00480
C637        C  0.14195485  0.61866473  0.15773181    -0.12210
C638        C  0.10804107  0.59684554  0.13313357     0.01730
H639        H  0.16372355  0.60544870  0.03134524     0.14710
H640        H  0.13545673  0.62156847  0.19313354     0.14710
C641        C  0.06699713  0.57871301  0.15766197     0.36360
C642        C  0.23435932  0.64899857  0.07003919     0.36270
N643        N  0.03434618  0.56448314  0.17777571    -0.43980
N644        N  0.26872850  0.66271710  0.05238239    -0.43980
C645        C  0.09734817  0.42182922  0.11236420    -0.00390
C646        C  0.13174708  0.44482261  0.13585931    -0.12270
C647        C  0.15958839  0.41943925  0.16337181     0.01840
C648        C  0.15122263  0.37069030  0.16951989    -0.00480
C649        C  0.11690930  0.34764733  0.14582027    -0.12210
C650        C  0.09017927  0.37278207  0.11702125     0.01730
H651        H  0.13752271  0.48261140  0.13188016     0.14710
H652        H  0.11194853  0.30966605  0.14897932     0.14710
C653        C  0.05532294  0.34782915  0.09318956     0.36360
C654        C  0.19810651  0.44359825  0.18277382     0.36270
N655        N  0.02747677  0.32784927  0.07395845    -0.43980
N656        N  0.22865513  0.46320844  0.19854831    -0.43980
C657        C  0.12383175  0.41769867  0.90578304    -0.00390
C658        C  0.13313979  0.37524338  0.92685695    -0.12270
C659        C  0.16071147  0.33918794  0.90555599     0.01840
C660        C  0.18146075  0.34567271  0.86236597    -0.00480
C661        C  0.17176182  0.38828144  0.84124962    -0.12210
C662        C  0.14298598  0.42375217  0.86228306     0.01730
H663        H  0.11712474  0.36936880  0.95952860     0.14710
H664        H  0.18731556  0.39434941  0.80846992     0.14710
C665        C  0.13441720  0.46669034  0.83886632     0.36360
C666        C  0.16491420  0.29498080  0.92832330     0.36270
N667        N  0.12759280  0.50113153  0.82010623    -0.43980
N668        N  0.16796471  0.25955534  0.94660527    -0.43980
C669        C  0.81387124  0.66956633  0.15260406    -0.00390
C670        C  0.85612392  0.68686339  0.13332378    -0.12270
C671        C  0.88555408  0.65770942  0.10614183     0.01840
C672        C  0.87238276  0.61040318  0.09689447    -0.00480
C673        C  0.82927343  0.59337275  0.11508411    -0.12210
C674        C  0.79994196  0.62267658  0.14289400     0.01730
H675        H  0.86630538  0.72327965  0.13980718     0.14710
H676        H  0.81952302  0.55676017  0.10913787     0.14710
C677        C  0.75606245  0.60393372  0.16140841     0.36360
C678        C  0.92992064  0.67679624  0.08890815     0.36270
N679        N  0.72098233  0.58880293  0.17638001    -0.43980
N680        N  0.96558748  0.69189532  0.07530718    -0.43980
C681        C  0.83175900  0.64379591  0.83917474    -0.00390
C682        C  0.87911278  0.65451526  0.82816747    -0.12270
C683        C  0.91481149  0.63974744  0.85479372     0.01840
C684        C  0.90314752  0.61432319  0.89356106    -0.00480
C685        C  0.85533496  0.60602049  0.90549270    -0.12210
C686        C  0.81989218  0.62001171  0.87853451     0.01730
H687        H  0.88823421  0.67396651  0.79847207     0.14710
H688        H  0.84564788  0.58619247  0.93484298     0.14710
C689        C  0.77158640  0.60854182  0.89135721     0.36360
C690        C  0.96296227  0.65164811  0.84196702     0.36270
N691        N  0.73291747  0.59921610  0.90158736    -0.43980
N692        N  0.00155140  0.66136635  0.83181008    -0.43980
C693        C  0.88500777  0.44075266  0.92669366    -0.00390
C694        C  0.85122151  0.46403031  0.90334840    -0.12270
C695        C  0.81833367  0.43867693  0.88003898     0.01840
C696        C  0.81857845  0.38834511  0.87942915    -0.00480
C697        C  0.85004425  0.36495609  0.90582001    -0.12210
C698        C  0.88334069  0.39078472  0.92910194     0.01730
H699        H  0.85223881  0.50238682  0.90122147     0.14710
H700        H  0.85077844  0.32648907  0.90598472     0.14710
C701        C  0.91673203  0.36541393  0.95364526     0.36360
C702        C  0.78582017  0.46556663  0.85562353     0.36270
N703        N  0.94341293  0.34518283  0.97357496    -0.43980
N704        N  0.76003934  0.48730895  0.83597130    -0.43980
C705        C  0.36941761  0.16800503  0.36231476    -0.00390
C706        C  0.41391143  0.15460966  0.34301250    -0.12270
C707        C  0.44289521  0.12233809  0.36417535     0.01840
C708        C  0.42632876  0.10140441  0.40395538    -0.00480
C709        C  0.37988163  0.11045915  0.41952860    -0.12210
C710        C  0.35249178  0.14501890  0.40089292     0.01730
H711        H  0.42687434  0.17095731  0.31271581     0.14710
H712        H  0.36543356  0.09130656  0.44748051     0.14710
C713        C  0.30770367  0.15724726  0.42322751     0.36360
C714        C  0.48964060  0.11219940  0.34533329     0.36270
N715        N  0.27231961  0.16726333  0.44190655    -0.43980
N716        N  0.52705329  0.10374674  0.33010684    -0.43980
C717        C  0.68041765  0.88161718  0.35200439    -0.00390
C718        C  0.68848442  0.90763014  0.39051515    -0.12270
C719        C  0.65109486  0.92827004  0.41652950     0.01840
C720        C  0.60432051  0.92228936  0.40477778    -0.00480
C721        C  0.59637474  0.89910201  0.36478860    -0.12210
C722        C  0.63397492  0.87933503  0.33812983     0.01730
H723        H  0.72395241  0.90983878  0.40146145     0.14710
H724        H  0.56051362  0.89412072  0.35556712     0.14710
C725        C  0.62338105  0.85398671  0.29848363     0.36360
C726        C  0.66125213  0.95341996  0.45644331     0.36270
N727        N  0.61413267  0.83382231  0.26681797    -0.43980
N728        N  0.66932012  0.97385753  0.48831008    -0.43980
C729        C  0.61861694  0.11004879  0.60094254    -0.00390
C730        C  0.65132963  0.14254087  0.58258690    -0.12270
C731        C  0.68186900  0.16715374  0.60914212     0.01840
C732        C  0.67875948  0.16004732  0.65493782    -0.00480
C733        C  0.64644002  0.12685708  0.67277695    -0.12210
C734        C  0.61666371  0.10194628  0.64643904     0.01730
H735        H  0.65310235  0.14852743  0.54749379     0.14710
H736        H  0.64339825  0.12101161  0.70789725     0.14710
C737        C  0.58266086  0.07029187  0.66753764     0.36360
C738        C  0.71608766  0.19883638  0.58861410     0.36270
N739        N  0.55548108  0.04498223  0.68447312    -0.43980
N740        N  0.74355324  0.22416135  0.57211690    -0.43980
C741        C  0.60182397  0.89222874  0.61897078    -0.00390
C742        C  0.62752392  0.91984569  0.64769558    -0.12270
C743        C  0.66299579  0.89974876  0.67203618     0.01840
C744        C  0.67345722  0.85010279  0.66878293    -0.00480
C745        C  0.64644206  0.82241834  0.64103967    -0.12210
C746        C  0.61146869  0.84266946  0.61640267     0.01730
H747        H  0.62121678  0.95782199  0.64989628     0.14710
H748        H  0.65290689  0.78452749  0.63803715     0.14710
C749        C  0.58599961  0.81125825  0.58856969     0.36360
C750        C  0.68860748  0.93192076  0.69902535     0.36270
N751        N  0.56580782  0.78622969  0.56596031    -0.43980
N752        N  0.70906112  0.95799530  0.72044540    -0.43980
C753        C  0.41846256  0.07948929  0.62074883    -0.00390
C754        C  0.42133691  0.07896648  0.66697027    -0.12270
C755        C  0.38696771  0.10278170  0.69579537     0.01840
C756        C  0.34853405  0.12666091  0.67847327    -0.00480
C757        C  0.34394993  0.12300879  0.63322999    -0.12210
C758        C  0.37816124  0.10134747  0.60484421     0.01730
H759        H  0.45190376  0.06308589  0.68038284     0.14710
H760        H  0.31454641  0.14071910  0.61926065     0.14710
C761        C  0.37230706  0.10720248  0.55891477     0.36360
C762        C  0.39326255  0.10459532  0.74227166     0.36270
N763        N  0.36625622  0.11484373  0.52271021    -0.43980
N764        N  0.39826869  0.10586104  0.77962408    -0.43980
C765        C  0.34636435  0.83623401  0.36718408    -0.00390
C766        C  0.33933804  0.83130743  0.41285195    -0.12270
C767        C  0.36868204  0.85474991  0.44144276     0.01840
C768        C  0.40572822  0.88347370  0.42418936    -0.00480
C769        C  0.41307915  0.88781085  0.37865407    -0.12210
C770        C  0.38426700  0.86419686  0.35012527     0.01730
H771        H  0.31020939  0.81018645  0.42621507     0.14710
H772        H  0.44230374  0.90884334  0.36526576     0.14710
C773        C  0.39583061  0.86768586  0.30345585     0.36360
C774        C  0.35877797  0.85066062  0.48822272     0.36270
N775        N  0.40531701  0.87034539  0.26612702    -0.43980
N776        N  0.35061473  0.84761453  0.52571341    -0.43980
C777        C  0.32332207  0.67737671  0.89697090    -0.00390
C778        C  0.31196521  0.62994362  0.90629635    -0.12270
C779        C  0.33627120  0.60481507  0.93679210     0.01840
C780        C  0.37234389  0.62757498  0.95853100    -0.00480
C781        C  0.38103210  0.67602159  0.95169271    -0.12210
C782        C  0.35730544  0.70095050  0.92082682     0.01730
H783        H  0.28521588  0.61196335  0.88846434     0.14710
H784        H  0.40916847  0.69364064  0.96795526     0.14710
C785        C  0.37239003  0.74878112  0.91127534     0.36360
C786        C  0.32411570  0.55580981  0.94460372     0.36270
N787        N  0.38542345  0.78687119  0.90399988    -0.43980
N788        N  0.31425036  0.51657815  0.95086210    -0.43980
C789        C  0.41009583  0.43249771  0.13369357    -0.00390
C790        C  0.42237309  0.40974583  0.17203524    -0.12270
C791        C  0.38798481  0.38658763  0.19907067     0.01840
C792        C  0.34068125  0.38652176  0.18782509    -0.00480
C793        C  0.32817070  0.41279918  0.15163180    -0.12210
C794        C  0.36228319  0.43566564  0.12466530     0.01730
H795        H  0.45917740  0.40676759  0.17888988     0.14710
H796        H  0.29210628  0.41197078  0.14211378     0.14710
C797        C  0.34786299  0.45907799  0.08590949     0.36360
C798        C  0.40254087  0.35952490  0.23562014     0.36270
N799        N  0.33632878  0.47781630  0.05485829    -0.43980
N800        N  0.41424330  0.33783140  0.26493036    -0.43980
C801        C  0.63402821  0.67888484  0.17809627    -0.00390
C802        C  0.64900328  0.66586739  0.13498791    -0.12270
C803        C  0.62374409  0.63351335  0.11129383     0.01840
C804        C  0.58201141  0.61411439  0.13059562    -0.00480
C805        C  0.56841463  0.62451091  0.17473103    -0.12210
C806        C  0.59443499  0.65682447  0.19884088     0.01730
H807        H  0.68062397  0.68141998  0.11956946     0.14710
H808        H  0.53608402  0.60976851  0.18940135     0.14710
C809        C  0.57783231  0.66908013  0.24318653     0.36360
C810        C  0.64086880  0.62157873  0.06679465     0.36270
N811        N  0.56340743  0.67843015  0.27857916    -0.43980
N812        N  0.65452692  0.61209381  0.03117641    -0.43980
C813        C  0.66748090  0.34326661  0.15013096    -0.00390
C814        C  0.67066272  0.39299908  0.14943126    -0.12270
C815        C  0.64092885  0.42005181  0.12500777     0.01840
C816        C  0.60801150  0.39700592  0.09909725    -0.00480
C817        C  0.60708797  0.34697716  0.09790444    -0.12210
C818        C  0.63544433  0.32020367  0.12385632     0.01730
H819        H  0.69508255  0.41105842  0.16991070     0.14710
H820        H  0.58176626  0.32834528  0.07889650     0.14710
C821        C  0.62587700  0.27018848  0.12715549     0.36360
C822        C  0.64391870  0.47108368  0.12930315     0.36270
N823        N  0.61601696  0.23055198  0.12996336    -0.43980
N824        N  0.64626409  0.51190175  0.13337536    -0.43980
C825        C  0.56255027  0.60830362  0.91871782    -0.00390
C826        C  0.58629460  0.57554301  0.88975945    -0.12270
C827        C  0.61962840  0.59036241  0.85667950     0.01840
C828        C  0.63058497  0.63926900  0.85204570    -0.00480
C829        C  0.60611458  0.67184413  0.88050753    -0.12210
C830        C  0.57224157  0.65731810  0.91276489     0.01730
H831        H  0.57934296  0.53793419  0.89325621     0.14710
H832        H  0.61329315  0.70940441  0.87768191     0.14710
C833        C  0.54759580  0.69434597  0.93837117     0.36360
C834        C  0.64255001  0.55411750  0.82891606     0.36270
N835        N  0.52788649  0.72420748  0.95860596    -0.43980
N836        N  0.66061132  0.52488435  0.80663525    -0.43980
C837        C  0.36103511  0.34642799  0.86257100    -0.00390
C838        C  0.39803412  0.37315655  0.84284836    -0.12270
C839        C  0.42250844  0.40613230  0.86803234     0.01840
C840        C  0.40861912  0.41320191  0.91291124    -0.00480
C841        C  0.36885841  0.38976978  0.93089775    -0.12210
C842        C  0.34574619  0.35607442  0.90675741     0.01730
H843        H  0.40924817  0.36655993  0.80865546     0.14710
H844        H  0.35740127  0.39576676  0.96519218     0.14710
C845        C  0.30725916  0.33114249  0.92921269     0.36360
C846        C  0.46331829  0.42955317  0.84818081     0.36270
N847        N  0.27704741  0.31150057  0.94840026    -0.43980
N848        N  0.49609302  0.44833008  0.83230810    -0.43980
C849        C  0.16273372  0.38295789  0.37183700    -0.00390
C850        C  0.15158481  0.37593195  0.41703732    -0.12270
C851        C  0.11088137  0.39553394  0.43865436     0.01840
C852        C  0.07975060  0.42278873  0.41488486    -0.00480
C853        C  0.09108293  0.42962013  0.36985889    -0.12210
C854        C  0.13187565  0.41080455  0.34860095     0.01730
H855        H  0.17472986  0.35469253  0.43578224     0.14710
H856        H  0.06819029  0.45062918  0.35064251     0.14710
C857        C  0.13958405  0.42080876  0.30275241     0.36360
C858        C  0.10282189  0.38749906  0.48513057     0.36270
N859        N  0.14343255  0.43078674  0.26618313    -0.43980
N860        N  0.09659190  0.38101147  0.52240232    -0.43980
C861        C  0.91822146  0.62285536  0.59394512    -0.00390
C862        C  0.87884840  0.62901115  0.56899089    -0.12270
C863        C  0.83637357  0.64682522  0.58895835     0.01840
C864        C  0.83349876  0.65727689  0.63431850    -0.00480
C865        C  0.87436483  0.65637846  0.65758389    -0.12210
C866        C  0.91659219  0.63950778  0.63779111     0.01730
H867        H  0.88000420  0.61607479  0.53525701     0.14710
H868        H  0.87252731  0.66606037  0.69226053     0.14710
C869        C  0.95651215  0.63494090  0.66449711     0.36360
C870        C  0.79560328  0.65060698  0.56346367     0.36270
N871        N  0.98823800  0.63120642  0.68612208    -0.43980
N872        N  0.76291475  0.65403632  0.54301786    -0.43980
C873        C  0.10472366  0.59941129  0.62749976    -0.00390
C874        C  0.09909459  0.59400047  0.67340072    -0.12270
C875        C  0.12382578  0.62172613  0.70213135     0.01840
C876        C  0.15651904  0.65526814  0.68535844    -0.00480
C877        C  0.16233976  0.66123834  0.63963671    -0.12210
C878        C  0.13683216  0.63383362  0.61064603     0.01730
H879        H  0.07447915  0.56832177  0.68752857     0.14710
H880        H  0.18772699  0.68669719  0.62635767     0.14710
C881        C  0.14457758  0.64215220  0.56417351     0.36360
C882        C  0.11357023  0.61578745  0.74873614     0.36270
N883        N  0.15101192  0.64901476  0.52698171    -0.43980
N884        N  0.10513980  0.61104132  0.78600782    -0.43980
C885        C  0.90061281  0.38765158  0.59418285    -0.00390
C886        C  0.85519866  0.40744783  0.59589059    -0.12270
C887        C  0.81976605  0.39154947  0.62594331     0.01840
C888        C  0.82909141  0.35433775  0.65449653    -0.00480
C889        C  0.87296488  0.33112768  0.64977762    -0.12210
C890        C  0.90893365  0.34795962  0.62021041     0.01730
H891        H  0.84865607  0.43848347  0.57654967     0.14710
H892        H  0.88016642  0.30203761  0.67120980     0.14710
C893        C  0.95504178  0.32647195  0.61941615     0.36360
C894        C  0.77472018  0.41555902  0.62842878     0.36270
N895        N  0.99203794  0.30923396  0.61860498    -0.43980
N896        N  0.73865478  0.43479553  0.63053872    -0.43980
C897        C  0.18094084  0.65062747  0.36240692    -0.00390
C898        C  0.18288969  0.60483348  0.37926907    -0.12270
C899        C  0.14838830  0.58900186  0.41008419     0.01840
C900        C  0.11004741  0.61870292  0.42390230    -0.00480
C901        C  0.10958474  0.66573217  0.40946889    -0.12210
C902        C  0.14518385  0.68212882  0.37928803     0.01730
H903        H  0.21116338  0.58096422  0.36769482     0.14710
H904        H  0.08004543  0.68863229  0.41955017     0.14710
C905        C  0.14238518  0.73015369  0.36398858     0.36360
C906        C  0.15229394  0.54131099  0.42611893     0.36270
N907        N  0.13991121  0.76877756  0.35201706    -0.43980
N908        N  0.15593228  0.50326758  0.43918371    -0.43980
C909        C  0.88884872  0.43580785  0.40316432    -0.00390
C910        C  0.86588390  0.39619254  0.42170754    -0.12270
C911        C  0.84408771  0.36269215  0.39549929     0.01840
C912        C  0.84397928  0.36918451  0.34959658    -0.00480
C913        C  0.86803506  0.40812965  0.33104381    -0.12210
C914        C  0.89076271  0.44088688  0.35699747     0.01730
H915        H  0.86548428  0.39094084  0.45688147     0.14710
H916        H  0.86935287  0.41304392  0.29578935     0.14710
C917        C  0.91788870  0.47753028  0.33463258     0.36360
C918        C  0.82240407  0.32234784  0.41702115     0.36270
N919        N  0.93984573  0.50654901  0.31651012    -0.43980
N920        N  0.80586530  0.28983380  0.43466712    -0.43980
C921        C  0.43226660  0.58755436  0.40913523    -0.00390
C922        C  0.39112065  0.61238597  0.42357295    -0.12270
C923        C  0.36064714  0.63062807  0.39376109     0.01840
C924        C  0.37037161  0.62356137  0.34817895    -0.00480
C925        C  0.41049868  0.59738831  0.33340908    -0.12210
C926        C  0.44186832  0.58010654  0.36338671     0.01730
H927        H  0.38322039  0.61860318  0.45845684     0.14710
H928        H  0.41856730  0.59253148  0.29839975     0.14710
C929        C  0.48567296  0.55916715  0.34616944     0.36360
C930        C  0.31955628  0.65682537  0.41084813     0.36270
N931        N  0.52117293  0.54322050  0.33232667    -0.43980
N932        N  0.28674363  0.67789950  0.42456756    -0.43980
C933        C  0.56528449  0.41613101  0.62007036    -0.00390
C934        C  0.57671425  0.36747278  0.61713516    -0.12270
C935        C  0.60858874  0.34668263  0.64425720     0.01840
C936        C  0.63140376  0.37459633  0.67559834    -0.00480
C937        C  0.61935840  0.42325953  0.67926000    -0.12210
C938        C  0.58665708  0.44397201  0.65235257     0.01730
H939        H  0.56071192  0.34488059  0.59314299     0.14710
H940        H  0.63563255  0.44560367  0.70324930     0.14710
C941        C  0.57550064  0.49363454  0.65931797     0.36360
C942        C  0.61609559  0.29625875  0.63877417     0.36270
N943        N  0.56649763  0.53341027  0.66517087    -0.43980
N944        N  0.62104683  0.25572698  0.63402798    -0.43980
C945        C  0.36538123  0.43071915  0.60776580    -0.00390
C946        C  0.33038093  0.40289805  0.58993940    -0.12270
C947        C  0.30026738  0.37576810  0.61702810     0.01840
C948        C  0.30547620  0.37593617  0.66277431    -0.00480
C949        C  0.33509579  0.40940745  0.68118537    -0.12210
C950        C  0.36513036  0.43705945  0.65395814     0.01730
H951        H  0.32905974  0.39934181  0.55456444     0.14710
H952        H  0.33863403  0.41020948  0.71639036     0.14710
C953        C  0.39876776  0.46717563  0.67435903     0.36360
C954        C  0.26740897  0.34453248  0.59673621     0.36270
N955        N  0.42562198  0.49138995  0.69075366    -0.43980
N956        N  0.24130610  0.31930953  0.58051145    -0.43980
C957        C  0.68947364  0.65206077  0.35694792    -0.00390
C958        C  0.70226203  0.60761982  0.37268845    -0.12270
C959        C  0.66981533  0.58127111  0.39909346     0.01840
C960        C  0.62415860  0.59980457  0.40939473    -0.00480
C961        C  0.61089553  0.64233597  0.39026154    -0.12210
C962        C  0.64313249  0.66879334  0.36509732     0.01730
H963        H  0.73808166  0.59488230  0.36649389     0.14710
H964        H  0.57555505  0.65637412  0.39684859     0.14710
C965        C  0.62848990  0.71465327  0.35030470     0.36360
C966        C  0.68515482  0.53744324  0.41746526     0.36270
N967        N  0.61661462  0.75144784  0.33882357    -0.43980
N968        N  0.69754573  0.50228394  0.43213793    -0.43980
C969        C  0.35023924  0.66655337  0.67936742    -0.00390
C970        C  0.39110158  0.69256266  0.66804462    -0.12270
C971        C  0.42873284  0.67154882  0.64264263     0.01840
C972        C  0.42575401  0.62379941  0.62837869    -0.00480
C973        C  0.38497882  0.59794506  0.63970511    -0.12210
C974        C  0.34725388  0.61885072  0.66446272     0.01730
H975        H  0.39400767  0.72892602  0.67975751     0.14710
H976        H  0.38169810  0.56180693  0.62747798     0.14710
C977        C  0.30487079  0.59121468  0.67200254     0.36360
C978        C  0.47070523  0.69894661  0.63295612     0.36270
N979        N  0.27085548  0.56918850  0.67781180    -0.43980
N980        N  0.50459121  0.72069380  0.62552009    -0.43980
C981        C  0.58062035  0.38309165  0.41132301    -0.00390
C982        C  0.61123309  0.35082384  0.42999302    -0.12270
C983        C  0.64567240  0.32579892  0.40397523     0.01840
C984        C  0.65017854  0.33314733  0.35839583    -0.00480
C985        C  0.61713984  0.36246950  0.33942686    -0.12210
C986        C  0.58238412  0.38697236  0.36526591     0.01730
H987        H  0.60968463  0.34660363  0.46532823     0.14710
H988        H  0.61932928  0.36728928  0.30413835     0.14710
C989        C  0.54831736  0.41461551  0.34350756     0.36360
C990        C  0.67747403  0.29529443  0.42533295     0.36270
N991        N  0.52068053  0.43600583  0.32573861    -0.43980
N992        N  0.70245607  0.27073786  0.44306064    -0.43980
loop_ 
_geom_bond_atom_site_label_1 
_geom_bond_atom_site_label_2 
_geom_bond_distance 
_geom_bond_site_symmetry_2 
_ccdc_geom_bond_type 
O1           Ni7   1.925       .  S
O1           C22   1.271       .  A
O2          Ni25   1.896       .  S
O2           C11   1.267       .  A
O3           Ni7   1.894       .  S
O3          Ni25   1.898       .  S
O3          Ni19   1.906       .  S
O3           H26   0.966       .  S
C4           O21   1.274       .  A
C4           O13   1.277       .  A
C4          C960   1.477       .  S
O5          Ni24   1.933       .  S
O5           C11   1.272       .  A
O6          Ni24   1.903       .  S
O6            C8   1.270       .  A
Ni7          O10   1.916       .  S
Ni7          O12   1.910       .  S
C8           O18   1.278       .  A
C8          C921   1.491       .  S
O9          Ni25   1.910       .  S
O9           C15   1.270       .  A
O10          C15   1.276       .  A
C11         C972   1.476       .  S
O12          C14   1.271       .  A
O13         Ni24   1.915       .  S
C14          O20   1.276       .  A
C14         C933   1.506       .  S
C15         C945   1.475       .  S
H16          O17   0.966       .  S
O17         Ni25   1.903       .  S
O17         Ni19   1.915       .  S
O17         Ni24   1.901       .  S
O18         Ni19   1.952       .  S
Ni19         O23   1.916       .  S
Ni19         O21   1.915       .  S
O20         Ni25   1.943       .  S
C22          O23   1.273       .  A
C22         C981   1.485       .  S
O27         Ni33   1.912   1_455  S
O27          C48   1.269       .  A
O28         Ni51   1.921       .  S
O28          C37   1.275       .  A
O29         Ni33   1.881       .  S
O29         Ni51   1.900       .  S
O29         Ni45   1.911   1_655  S
O29          H52   0.966       .  S
C30          O47   1.276       .  A
C30          O39   1.274       .  A
C30         C873   1.488       .  S
O31         Ni50   1.915       .  S
O31          C37   1.270       .  A
O32         Ni50   1.887       .  S
O32          C34   1.267       .  A
Ni33         O36   1.906       .  S
Ni33         O38   1.903   1_655  S
C34          O44   1.275       .  A
C34         C861   1.464       .  S
O35         Ni51   1.918       .  S
O35          C41   1.274       .  A
O36          C41   1.271       .  A
C37         C885   1.477       .  S
O38          C40   1.271       .  A
O39         Ni50   1.909   1_455  S
C40          O46   1.276       .  A
C40         C852   1.491       .  S
C41         C909   1.478       .  S
H42          O43   0.966       .  S
O43         Ni51   1.907   1_455  S
O43         Ni45   1.912       .  S
O43         Ni50   1.880   1_455  S
O44         Ni45   1.944   1_655  S
Ni45         O49   1.927       .  S
Ni45         O47   1.914       .  S
O46         Ni51   1.932   1_455  S
C48          O49   1.274       .  A
C48         C900   1.477       .  S
O53         Ni59   1.904       .  S
O53          C74   1.267       .  A
O54         Ni77   1.914       .  S
O54          C63   1.269       .  A
O55         Ni59   1.881       .  S
O55         Ni77   1.892   1_554  S
O55         Ni71   1.903       .  S
O55          H78   0.966       .  S
C56          O73   1.275       .  A
C56          O65   1.276       .  A
C56         C816   1.485       .  S
O57         Ni76   1.910   1_556  S
O57          C63   1.271       .  A
O58         Ni76   1.903       .  S
O58          C60   1.266       .  A
Ni59         O62   1.900       .  S
Ni59         O64   1.908   1_554  S
C60          O70   1.271       .  A
C60         C789   1.478       .  S
O61         Ni77   1.920       .  S
O61          C67   1.279       .  A
O62          C67   1.274   1_554  A
C63         C840   1.471       .  S
O64          C66   1.268       .  A
O65         Ni76   1.913       .  S
C66          O72   1.277       .  A
C66         C825   1.505       .  S
C67         C780   1.466       .  S
H68          O69   0.966   1_556  S
O69         Ni77   1.908   1_554  S
O69         Ni71   1.900       .  S
O69         Ni76   1.887       .  S
O70         Ni71   1.939       .  S
Ni71         O75   1.907       .  S
Ni71         O73   1.908       .  S
O72         Ni77   1.944       .  S
C74          O75   1.266       .  A
C74         C804   1.459       .  S
O79         Ni85   1.933       .  S
O79         C100   1.275       .  A
O80        Ni103   1.943       .  S
O80          C89   1.282       .  A
O81         Ni85   1.889       .  S
O81        Ni103   1.910   1_545  S
O81         Ni97   1.908   1_545  S
O81         H104   0.966       .  S
C82          O99   1.277       .  A
C82          O91   1.276       .  A
C82         C768   1.472       .  S
O83        Ni102   1.931       .  S
O83          C89   1.273       .  A
O84        Ni102   1.914       .  S
O84          C86   1.269       .  A
Ni85         O88   1.920       .  S
Ni85         O90   1.910       .  S
C86          O96   1.276       .  A
C86         C720   1.487       .  S
O87        Ni103   1.902   1_545  S
O87          C93   1.275       .  A
O88          C93   1.276       .  A
C89         C741   1.510       .  S
O90          C92   1.272       .  A
O91        Ni102   1.923       .  S
C92          O98   1.289       .  A
C92         C753   1.517       .  S
C93         C729   1.467       .  S
H94          O95   0.966       .  S
O95        Ni103   1.911       .  S
O95         Ni97   1.916       .  S
O95        Ni102   1.901       .  S
O96         Ni97   1.947       .  S
Ni97        O101   1.935   1_565  S
Ni97         O99   1.916       .  S
O98        Ni103   1.988   1_545  S
C100        O101   1.274       .  A
C100        C708   1.491       .  S
O105       Ni111   1.929       .  S
O105        C126   1.271       .  A
O106       Ni129   1.926       .  S
O106        C115   1.273       .  A
O107       Ni111   1.919       .  S
O107       Ni129   1.927   1_456  S
O107       Ni123   1.923   1_556  S
O107        H130   0.966       .  S
C108        O125   1.273       .  A
C108        O117   1.272       .  A
C108        C645   1.463       .  S
O109       Ni128   1.905       .  S
O109        C115   1.265       .  A
O110       Ni128   1.894   1_455  S
O110        C112   1.259       .  A
Ni111       O114   1.924   1_455  S
Ni111       O116   1.916   1_455  S
C112        O122   1.286       .  A
C112        C633   1.514       .  S
O113       Ni129   1.922   1_556  S
O113        C119   1.275       .  A
O114        C119   1.274       .  A
C115        C672   1.475       .  S
O116        C118   1.271       .  A
O117       Ni128   1.922   1_455  S
C118        O124   1.278       .  A
C118        C693   1.488       .  S
C119        C684   1.489       .  S
H120        O121   0.966       .  S
O121       Ni129   1.915       .  S
O121       Ni123   1.925   1_655  S
O121       Ni128   1.900       .  S
O122       Ni123   2.005       .  S
Ni123       O127   1.932   1_554  S
Ni123       O125   1.910       .  S
O124       Ni129   1.949   1_556  S
C126        O127   1.276       .  A
C126        C657   1.493       .  S
O131       Ni137   1.900   1_545  S
O131        C152   1.266       .  A
O132       Ni155   1.892   1_655  S
O132        C141   1.268       .  A
O133       Ni137   1.875       .  S
O133       Ni155   1.880       .  S
O133       Ni149   1.920   1_565  S
O133        H156   0.966       .  S
C134        O151   1.281       .  A
C134        O143   1.279       .  A
C134        C597   1.493       .  S
O135       Ni154   1.917   1_565  S
O135        C141   1.273       .  A
O136       Ni154   1.900   1_565  S
O136        C138   1.268       .  A
Ni137       O140   1.910       .  S
Ni137       O142   1.898   1_565  S
C138        O148   1.276       .  A
C138        C624   1.481       .  S
O139       Ni155   1.935       .  S
O139        C145   1.283       .  A
O140        C145   1.278       .  A
C141        C588   1.473       .  S
O142        C144   1.266       .  A
O143       Ni154   1.920       .  S
C144        O150   1.273       .  A
C144        C564   1.477       .  S
C145        C612   1.484       .  S
H146        O147   0.966       .  S
O147       Ni155   1.917   1_645  S
O147       Ni149   1.885   1_655  S
O147       Ni154   1.879       .  S
O148       Ni149   1.943   1_665  S
Ni149       O153   1.913       .  S
Ni149       O151   1.927   1_455  S
O150       Ni155   1.939   1_545  S
C152        O153   1.270       .  A
C152        C573   1.462       .  S
O157       Ni163   1.910       .  S
O157        C178   1.264       .  A
O158       Ni181   1.940       .  S
O158        C167   1.276       .  A
O159       Ni163   1.890       .  S
O159       Ni181   1.916   1_564  S
O159       Ni175   1.875       .  S
O159        H182   0.966       .  S
C160        O177   1.261       .  A
C160        O169   1.271       .  A
C160        C504   1.431       .  S
O161       Ni180   1.926   1_556  S
O161        C167   1.268       .  A
O162       Ni180   1.898       .  S
O162        C164   1.270       .  A
Ni163       O166   1.881   1_554  S
Ni163       O168   1.892   1_554  S
C164        O174   1.276       .  A
C164        C489   1.484       .  S
O165       Ni181   1.887   1_565  S
O165        C171   1.271       .  A
O166        C171   1.270       .  A
C167        C537   1.491       .  S
O168        C170   1.265       .  A
O169       Ni180   1.909       .  S
C170        O176   1.278       .  A
C170        C549   1.476       .  S
C171        C525   1.429       .  S
H172        O173   0.966   1_556  S
O173       Ni181   1.895   1_554  S
O173       Ni175   1.917   1_545  S
O173       Ni180   1.898       .  S
O174       Ni175   1.942   1_545  S
Ni175       O179   1.921       .  S
Ni175       O177   1.868   1_565  S
O176       Ni181   1.953   1_565  S
C178        O179   1.272       .  A
C178        C513   1.473       .  S
O183       Ni189   1.914   1_655  S
O183        C204   1.269       .  A
O184       Ni207   1.926   1_556  S
O184        C193   1.275       .  A
O185       Ni189   1.887       .  S
O185       Ni207   1.910   1_545  S
O185       Ni201   1.922   1_455  S
O185        H208   0.966       .  S
C186        O203   1.273       .  A
C186        O195   1.272       .  A
C186        C465   1.479       .  S
O187       Ni206   1.911   1_455  S
O187        C193   1.268       .  A
O188       Ni206   1.900   1_445  S
O188        C190   1.271       .  A
Ni189       O192   1.914   1_545  S
Ni189       O194   1.877   1_445  S
C190        O200   1.276       .  A
C190        C444   1.486       .  S
O191       Ni207   1.909       .  S
O191        C197   1.271       .  A
O192        C197   1.273       .  A
C193        C456   1.484       .  S
O194        C196   1.266       .  A
O195       Ni206   1.907   1_545  S
C196        O202   1.285       .  A
C196        C477   1.483       .  S
C197        C429   1.479       .  S
H198        O199   0.966   1_554  S
O199       Ni207   1.915   1_656  S
O199       Ni201   1.902   1_566  S
O199       Ni206   1.889       .  S
O200       Ni201   1.928   1_456  S
Ni201       O205   1.915       .  S
Ni201       O203   1.925   1_554  S
O202       Ni207   1.959   1_655  S
C204        O205   1.274       .  A
C204        C420   1.479       .  S
O209       Ni215   1.918       .  S
O209        C230   1.270       .  A
O210       Ni233   1.899       .  S
O210        C219   1.266       .  A
O211       Ni215   1.885       .  S
O211       Ni233   1.886       .  S
O211       Ni227   1.903       .  S
O211        H234   0.962       .  S
C212        O229   1.275       .  A
C212        O221   1.276       .  A
C212        C621   1.473       .  S
O213       Ni232   1.928       .  S
O213        C219   1.274       .  A
O214       Ni232   1.913       .  S
O214        C216   1.271       .  A
Ni215       O218   1.908       .  S
Ni215       O220   1.906       .  S
C216        O226   1.280       .  A
C216        C717   1.490       .  S
O217       Ni233   1.922       .  S
O217        C223   1.276       .  A
O218        C223   1.276       .  A
C219        C957   1.465       .  S
O220        C222   1.268       .  A
O221       Ni232   1.924       .  S
C222        O228   1.277       .  A
C222        C669   1.472       .  S
C223        C801   1.459       .  S
H224        O225   0.967       .  S
O225       Ni233   1.915       .  S
O225       Ni227   1.902       .  S
O225       Ni232   1.897       .  S
O226       Ni227   1.957       .  S
Ni227       O231   1.905       .  S
Ni227       O229   1.920       .  S
O228       Ni233   1.937       .  S
C230        O231   1.275       .  A
C230        C480   1.486       .  S
O235       Ni241   1.937       .  S
O235        C256   1.278       .  A
O236       Ni259   1.913       .  S
O236        C245   1.267       .  A
O237       Ni241   1.899       .  S
O237       Ni259   1.901       .  S
O237       Ni253   1.920       .  S
O237        H260   0.966       .  S
C238        O255   1.277       .  A
C238        O247   1.273       .  A
C238        C468   1.478       .  S
O239       Ni258   1.903       .  S
O239        C245   1.266       .  A
O240       Ni258   1.892       .  S
O240        C242   1.266       .  A
Ni241       O244   1.939       .  S
Ni241       O246   1.917       .  S
C242        O252   1.285       .  A
C242        C540   1.484       .  S
O243       Ni259   1.926       .  S
O243        C249   1.279       .  A
O244        C249   1.281       .  A
C245        C732   1.476       .  S
O246        C248   1.271       .  A
O247       Ni258   1.899       .  S
C248        O254   1.269       .  A
C248        C888   1.482       .  S
C249        C936   1.508       .  S
H250        O251   0.966       .  S
O251       Ni259   1.914       .  S
O251       Ni253   1.907       .  S
O251       Ni258   1.888       .  S
O252       Ni253   1.964       .  S
Ni253       O257   1.930       .  S
Ni253       O255   1.929       .  S
O254       Ni259   1.929       .  S
C256        O257   1.279       .  A
C256        C696   1.500       .  S
O261       Ni267   1.946       .  S
O261        C282   1.278       .  A
O262       Ni285   1.900       .  S
O262        C271   1.266       .  A
O263       Ni267   1.904       .  S
O263       Ni285   1.895       .  S
O263       Ni279   1.902       .  S
O263        H286   0.966       .  S
C264        O281   1.272       .  A
C264        O273   1.273       .  A
C264        C876   1.476       .  S
O265       Ni284   1.910       .  S
O265        C271   1.267       .  A
O266       Ni284   1.897       .  S
O266        C268   1.268       .  A
Ni267       O270   1.938       .  S
Ni267       O272   1.921       .  S
C268        O278   1.277       .  A
C268        C969   1.481       .  S
O269       Ni285   1.917       .  S
O269        C275   1.277       .  A
O270        C275   1.279       .  A
C271        C777   1.464       .  S
O272        C274   1.272       .  A
O273       Ni284   1.907       .  S
C274        O280   1.268       .  A
C274        C453   1.485       .  S
C275        C552   1.476       .  S
H276        O277   0.965       .  S
O277       Ni285   1.913       .  S
O277       Ni279   1.897       .  S
O277       Ni284   1.897       .  S
O278       Ni279   1.941       .  S
Ni279       O283   1.892       .  S
Ni279       O281   1.913       .  S
O280       Ni285   1.927       .  S
C282        O283   1.266       .  A
C282        C609   1.470       .  S
O287       Ni293   1.913       .  S
O287        C308   1.271       .  A
O288       Ni311   1.917       .  S
O288        C297   1.275       .  A
O289       Ni293   1.884       .  S
O289       Ni311   1.898       .  S
O289       Ni305   1.911       .  S
O289        H312   0.967       .  S
C290        O307   1.277       .  A
C290        O299   1.274       .  A
C290        C837   1.471       .  S
O291       Ni310   1.906       .  S
O291        C297   1.269       .  A
O292       Ni310   1.913       .  S
O292        C294   1.268       .  A
Ni293       O296   1.936       .  S
Ni293       O298   1.902       .  S
C294        O304   1.281       .  A
C294        C660   1.506       .  S
O295       Ni311   1.909       .  S
O295        C301   1.274       .  A
O296        C301   1.277       .  A
C297        C441   1.483       .  S
O298        C300   1.266       .  A
O299       Ni310   1.906       .  S
C300        O306   1.284       .  A
C300        C756   1.506       .  S
C301        C561   1.472       .  S
H302        O303   0.966       .  S
O303       Ni311   1.915       .  S
O303       Ni305   1.905       .  S
O303       Ni310   1.885       .  S
O304       Ni305   1.954       .  S
Ni305       O309   1.908       .  S
Ni305       O307   1.933       .  S
O306       Ni311   1.993       .  S
C308        O309   1.271       .  A
C308        C948   1.469       .  S
O313       Ni319   1.916       .  S
O313        C334   1.268       .  A
O314       Ni337   1.937       .  S
O314        C323   1.281       .  A
O315       Ni319   1.875       .  S
O315       Ni337   1.900       .  S
O315       Ni331   1.899       .  S
O315        H338   0.965       .  S
C316        O333   1.274       .  A
C316        O325   1.281       .  A
C316        C924   1.482       .  S
O317       Ni336   1.946       .  S
O317        C323   1.283       .  A
O318       Ni336   1.916       .  S
O318        C320   1.273       .  A
Ni319       O322   1.899       .  S
Ni319       O324   1.899       .  S
C320        O330   1.271       .  A
C320        C897   1.481       .  S
O321       Ni337   1.942       .  S
O321        C327   1.280       .  A
O322        C327   1.273       .  A
C323        C636   1.507       .  S
O324        C326   1.270       .  A
O325       Ni336   1.950       .  S
C326        O332   1.283       .  A
C326        C516   1.481       .  S
C327        C432   1.486       .  S
H328        O329   0.966       .  S
O329       Ni337   1.922       .  S
O329       Ni331   1.906       .  S
O329       Ni336   1.894       .  S
O330       Ni331   1.930       .  S
Ni331       O335   1.914       .  S
Ni331       O333   1.905       .  S
O332       Ni337   1.950       .  S
C334        O335   1.269       .  A
C334        C765   1.478       .  S
O339       Ni345   1.902       .  S
O339        C360   1.264       .  A
O340       Ni363   1.908       .  S
O340        C349   1.271       .  A
O341       Ni345   1.882       .  S
O341       Ni363   1.894       .  S
O341       Ni357   1.910       .  S
O341        H364   0.966       .  S
C342        O359   1.277       .  A
C342        O351   1.279       .  A
C342        C492   1.477       .  S
O343       Ni362   1.931       .  S
O343        C349   1.276       .  A
O344       Ni362   1.912       .  S
O344        C346   1.269       .  A
Ni345       O348   1.902       .  S
Ni345       O350   1.892       .  S
C346        O356   1.270       .  A
C346        C417   1.476       .  S
O347       Ni363   1.922       .  S
O347        C353   1.276       .  A
O348        C353   1.274       .  A
C349        C600   1.481       .  S
O350        C352   1.267       .  A
O351       Ni362   1.940       .  S
C352        O358   1.279       .  A
C352        C984   1.481       .  S
C353        C912   1.480       .  S
H354        O355   0.966       .  S
O355       Ni363   1.912       .  S
O355       Ni357   1.905       .  S
O355       Ni362   1.899       .  S
O356       Ni357   1.932       .  S
Ni357       O361   1.919       .  S
Ni357       O359   1.906       .  S
O358       Ni363   1.947       .  S
C360        O361   1.271       .  A
C360        C813   1.471       .  S
O365       Ni371   1.918       .  S
O365        C386   1.272       .  A
O366       Ni389   1.874       .  S
O366        C375   1.255       .  A
O367       Ni371   1.906       .  S
O367       Ni389   1.896       .  S
O367       Ni383   1.930       .  S
O367        H390   0.966       .  S
C368        O385   1.282       .  A
C368        O377   1.269       .  A
C368        C648   1.462       .  S
O369       Ni388   1.896       .  S
O369        C375   1.266       .  A
O370       Ni388   1.896       .  S
O370        C372   1.269       .  A
Ni371       O374   1.927       .  S
Ni371       O376   1.911       .  S
C372        O382   1.280       .  A
C372        C792   1.477       .  S
O373       Ni389   1.938       .  S
O373        C379   1.276       .  A
O374        C379   1.277       .  A
C375        C501   1.429       .  S
O376        C378   1.267       .  A
O377       Ni388   1.893       .  S
C378        O384   1.258       .  A
C378        C576   1.453       .  S
C379        C705   1.490       .  S
H380        O381   0.966       .  S
O381       Ni389   1.903       .  S
O381       Ni383   1.885       .  S
O381       Ni388   1.882       .  S
O382       Ni383   1.953       .  S
Ni383       O387   1.916       .  S
Ni383       O385   1.930       .  S
O384       Ni389   1.896       .  S
C386        O387   1.277       .  A
C386        C849   1.490       .  S
O391       Ni397   1.935       .  S
O391        C412   1.278       .  A
O392       Ni415   1.881       .  S
O392        C401   1.262       .  A
O393       Ni397   1.905       .  S
O393       Ni415   1.886       .  S
O393       Ni409   1.914       .  S
O393        H416   0.966       .  S
C394        O411   1.276       .  A
C394        O403   1.271       .  A
C394        C585   1.466       .  S
O395       Ni414   1.887       .  S
O395        C401   1.265       .  A
O396       Ni414   1.919       .  S
O396        C398   1.271       .  A
Ni397       O400   1.942       .  S
Ni397       O402   1.924       .  S
C398        O408   1.284       .  A
C398        C744   1.520       .  S
O399       Ni415   1.927       .  S
O399        C405   1.282       .  A
O400        C405   1.282       .  A
C401        C528   1.421       .  S
O402        C404   1.270       .  A
O403       Ni414   1.892       .  S
C404        O410   1.265       .  A
C404        C681   1.477       .  S
C405        C828   1.506       .  S
H406        O407   0.966       .  S
O407       Ni415   1.905       .  S
O407       Ni409   1.875       .  S
O407       Ni414   1.884       .  S
O408       Ni409   1.960       .  S
Ni409       O413   1.884       .  S
Ni409       O411   1.919       .  S
O410       Ni415   1.917       .  S
C412        O413   1.264       .  A
C412        C864   1.467       .  S
C417        C418   1.398       .  A
C417        C422   1.409       .  A
C418        C419   1.401       .  A
C418        H423   1.084       .  S
C419        C420   1.416       .  A
C419        C426   1.443       .  S
C420        C421   1.407       .  A
C421        C422   1.405       .  A
C421        H424   1.085       .  S
C422        C425   1.444       .  S
C425        N427   1.157       .  T
C426        N428   1.157       .  T
C429        C430   1.409       .  A
C429        C434   1.410       .  A
C430        C431   1.406       .  A
C430        H435   1.085       .  S
C431        C432   1.414       .  A
C431        C438   1.444       .  S
C432        C433   1.408       .  A
C433        C434   1.391       .  A
C433        H436   1.085       .  S
C434        C437   1.446       .  S
C437        N439   1.157   1_565  T
C438        N440   1.157       .  T
C441        C442   1.410       .  A
C441        C446   1.410       .  A
C442        C443   1.400       .  A
C442        H447   1.085       .  S
C443        C444   1.413       .  A
C443        C450   1.444       .  S
C444        C445   1.407       .  A
C445        C446   1.395       .  A
C445        H448   1.085       .  S
C446        C449   1.439       .  S
C449        N451   1.156       .  T
C450        N452   1.157   1_556  T
C453        C454   1.398       .  A
C453        C458   1.417       .  A
C454        C455   1.397       .  A
C454        H459   1.085       .  S
C455        C456   1.414       .  A
C455        C462   1.443       .  S
C456        C457   1.404       .  A
C457        C458   1.413       .  A
C457        H460   1.084       .  S
C458        C461   1.442       .  S
C461        N463   1.157       .  T
C462        N464   1.156   1_565  T
C465        C466   1.406       .  A
C465        C470   1.415       .  A
C466        C467   1.405       .  A
C466        H471   1.083       .  S
C467        C468   1.414       .  A
C467        C474   1.444       .  S
C468        C469   1.402       .  A
C469        C470   1.392       .  A
C469        H472   1.085       .  S
C470        C473   1.446       .  S
C473        N475   1.157       .  T
C474        N476   1.157       .  T
C477        C478   1.401       .  A
C477        C482   1.420       .  A
C478        C479   1.404       .  A
C478        H483   1.085       .  S
C479        C480   1.422       .  A
C479        C486   1.444       .  S
C480        C481   1.400       .  A
C481        C482   1.394       .  A
C481        H484   1.084       .  S
C482        C485   1.447       .  S
C485        N487   1.157       .  T
C486        N488   1.157       .  T
C489        C490   1.405       .  A
C489        C494   1.413       .  A
C490        C491   1.392       .  A
C490        H495   1.083       .  S
C491        C492   1.406       .  A
C491        C498   1.446       .  S
C492        C493   1.408       .  A
C493        C494   1.410       .  A
C493        H496   1.084       .  S
C494        C497   1.443       .  S
C497        N499   1.157   1_545  T
C498        N500   1.157       .  T
C501        C502   1.392       .  A
C501        C506   1.405       .  A
C502        C503   1.380       .  A
C502        H507   1.087       .  S
C503        C504   1.406       .  A
C503        C510   1.443       .  S
C504        C505   1.396       .  A
C505        C506   1.389       .  A
C505        H508   1.085       .  S
C506        C509   1.444       .  S
C509        N511   1.157       .  T
C510        N512   1.156       .  T
C513        C514   1.407       .  A
C513        C518   1.408       .  A
C514        C515   1.406       .  A
C514        H519   1.085       .  S
C515        C516   1.411       .  A
C515        C522   1.443       .  S
C516        C517   1.406       .  A
C517        C518   1.397       .  A
C517        H520   1.086       .  S
C518        C521   1.443       .  S
C521        N523   1.157       .  T
C522        N524   1.157       .  T
C525        C526   1.397       .  A
C525        C530   1.404       .  A
C526        C527   1.374       .  A
C526        H531   1.087       .  S
C527        C528   1.402       .  A
C527        C534   1.447       .  S
C528        C529   1.399       .  A
C529        C530   1.390       .  A
C529        H532   1.085       .  S
C530        C533   1.444       .  S
C533        N535   1.157       .  T
C534        N536   1.157       .  T
C537        C538   1.404       .  A
C537        C542   1.416       .  A
C538        C539   1.409       .  A
C538        H543   1.084       .  S
C539        C540   1.416       .  A
C539        C546   1.444       .  S
C540        C541   1.401       .  A
C541        C542   1.405       .  A
C541        H544   1.085       .  S
C542        C545   1.443       .  S
C545        N547   1.157   1_556  T
C546        N548   1.157       .  T
C549        C550   1.404       .  A
C549        C554   1.412       .  A
C550        C551   1.405       .  A
C550        H555   1.085       .  S
C551        C552   1.411       .  A
C551        C558   1.443       .  S
C552        C553   1.401       .  A
C553        C554   1.402       .  A
C553        H556   1.085       .  S
C554        C557   1.444       .  S
C557        N559   1.157       .  T
C558        N560   1.157       .  T
C561        C562   1.405       .  A
C561        C566   1.407       .  A
C562        C563   1.407       .  A
C562        H567   1.084       .  S
C563        C564   1.410       .  A
C563        C570   1.443       .  S
C564        C565   1.404       .  A
C565        C566   1.396       .  A
C565        H568   1.086       .  S
C566        C569   1.444       .  S
C569        N571   1.157       .  T
C570        N572   1.157       .  T
C573        C574   1.403       .  A
C573        C578   1.414       .  A
C574        C575   1.400       .  A
C574        H579   1.082       .  S
C575        C576   1.406       .  A
C575        C582   1.443       .  S
C576        C577   1.394       .  A
C577        C578   1.387       .  A
C577        H580   1.085       .  S
C578        C581   1.447       .  S
C581        N583   1.157       .  T
C582        N584   1.157       .  T
C585        C586   1.407       .  A
C585        C590   1.407       .  A
C586        C587   1.396       .  A
C586        H591   1.085       .  S
C587        C588   1.410       .  A
C587        C594   1.444       .  S
C588        C589   1.408       .  A
C589        C590   1.391       .  A
C589        H592   1.085       .  S
C590        C593   1.446       .  S
C593        N595   1.157       .  T
C594        N596   1.157   1_655  T
C597        C598   1.413       .  A
C597        C602   1.418       .  A
C598        C599   1.406       .  A
C598        H603   1.084       .  S
C599        C600   1.408       .  A
C599        C606   1.442       .  S
C600        C601   1.402       .  A
C601        C602   1.395       .  A
C601        H604   1.086       .  S
C602        C605   1.445       .  S
C605        N607   1.157       .  T
C606        N608   1.157       .  T
C609        C610   1.405       .  A
C609        C614   1.404       .  A
C610        C611   1.405       .  A
C610        H615   1.085       .  S
C611        C612   1.413       .  A
C611        C618   1.444       .  S
C612        C613   1.410       .  A
C613        C614   1.397       .  A
C613        H616   1.085       .  S
C614        C617   1.445       .  S
C617        N619   1.157       .  T
C618        N620   1.157       .  T
C621        C622   1.398       .  A
C621        C626   1.411       .  A
C622        C623   1.396       .  A
C622        H627   1.086       .  S
C623        C624   1.416       .  A
C623        C630   1.445   1_565  S
C624        C625   1.405       .  A
C625        C626   1.408       .  A
C625        H628   1.084       .  S
C626        C629   1.442       .  S
C629        N631   1.157       .  T
C630        N632   1.157       .  T
C633        C634   1.414       .  A
C633        C638   1.423       .  A
C634        C635   1.427       .  A
C634        H639   1.084       .  S
C635        C636   1.419       .  A
C635        C642   1.442       .  S
C636        C637   1.400       .  A
C637        C638   1.397       .  A
C637        H640   1.086       .  S
C638        C641   1.446       .  S
C641        N643   1.157       .  T
C642        N644   1.157       .  T
C645        C646   1.403       .  A
C645        C650   1.406       .  A
C646        C647   1.395       .  A
C646        H651   1.086       .  S
C647        C648   1.408       .  A
C647        C654   1.445       .  S
C648        C649   1.405       .  A
C649        C650   1.398       .  A
C649        H652   1.085       .  S
C650        C653   1.444       .  S
C653        N655   1.157       .  T
C654        N656   1.157       .  T
C657        C658   1.400       .  A
C657        C662   1.416       .  A
C658        C659   1.407       .  A
C658        H663   1.085       .  S
C659        C660   1.424       .  A
C659        C666   1.445       .  S
C660        C661   1.407       .  A
C661        C662   1.410       .  A
C661        H664   1.084       .  S
C662        C665   1.443       .  S
C665        N667   1.157       .  T
C666        N668   1.157       .  T
C669        C670   1.398       .  A
C669        C674   1.412       .  A
C670        C671   1.396       .  A
C670        H675   1.085       .  S
C671        C672   1.414       .  A
C671        C678   1.446       .  S
C672        C673   1.404       .  A
C673        C674   1.408       .  A
C673        H676   1.084       .  S
C674        C677   1.443       .  S
C677        N679   1.157       .  T
C678        N680   1.157       .  T
C681        C682   1.404       .  A
C681        C686   1.408       .  A
C682        C683   1.407       .  A
C682        H687   1.085       .  S
C683        C684   1.415       .  A
C683        C690   1.444       .  S
C684        C685   1.408       .  A
C685        C686   1.401       .  A
C685        H688   1.085       .  S
C686        C689   1.445       .  S
C689        N691   1.157       .  T
C690        N692   1.157   1_655  T
C693        C694   1.401       .  A
C693        C698   1.412       .  A
C694        C695   1.401       .  A
C694        H699   1.084       .  S
C695        C696   1.418       .  A
C695        C702   1.445       .  S
C696        C697   1.411       .  A
C697        C698   1.416       .  A
C697        H700   1.084       .  S
C698        C701   1.442       .  S
C701        N703   1.157       .  T
C702        N704   1.157       .  T
C705        C706   1.410       .  A
C705        C710   1.412       .  A
C706        C707   1.417       .  A
C706        H711   1.084       .  S
C707        C708   1.413       .  A
C707        C714   1.442       .  S
C708        C709   1.398       .  A
C709        C710   1.397       .  A
C709        H712   1.077       .  S
C710        C713   1.445       .  S
C713        N715   1.157       .  T
C714        N716   1.157       .  T
C717        C718   1.406       .  A
C717        C722   1.415       .  A
C718        C719   1.405       .  A
C718        H723   1.085       .  S
C719        C720   1.410       .  A
C719        C726   1.444       .  S
C720        C721   1.405       .  A
C721        C722   1.410       .  A
C721        H724   1.085       .  S
C722        C725   1.443       .  S
C725        N727   1.157       .  T
C726        N728   1.157       .  T
C729        C730   1.406       .  A
C729        C734   1.408       .  A
C730        C731   1.402       .  A
C730        H735   1.085       .  S
C731        C732   1.412       .  A
C731        C738   1.444       .  S
C732        C733   1.406       .  A
C733        C734   1.388       .  A
C733        H736   1.085       .  S
C734        C737   1.447       .  S
C737        N739   1.157       .  T
C738        N740   1.157       .  T
C741        C742   1.403       .  A
C741        C746   1.422       .  A
C742        C743   1.413       .  A
C742        H747   1.085       .  S
C743        C744   1.430       .  A
C743        C750   1.444       .  S
C744        C745   1.407       .  A
C745        C746   1.410       .  A
C745        H748   1.084       .  S
C746        C749   1.444       .  S
C749        N751   1.157       .  T
C750        N752   1.158       .  T
C753        C754   1.418       .  A
C753        C758   1.417       .  A
C754        C755   1.431       .  A
C754        H759   1.083       .  S
C755        C756   1.418       .  A
C755        C762   1.440       .  S
C756        C757   1.397       .  A
C757        C758   1.394       .  A
C757        H760   1.087       .  S
C758        C761   1.434       .  S
C761        N763   1.152       .  T
C762        N764   1.157       .  T
C765        C766   1.404       .  A
C765        C770   1.416       .  A
C766        C767   1.404       .  A
C766        H771   1.085       .  S
C767        C768   1.412       .  A
C767        C774   1.444       .  S
C768        C769   1.399       .  A
C769        C770   1.395       .  A
C769        H772   1.086       .  S
C770        C773   1.446       .  S
C773        N775   1.157       .  T
C774        N776   1.157       .  T
C777        C778   1.406       .  A
C777        C782   1.408       .  A
C778        C779   1.395       .  A
C778        H783   1.085       .  S
C779        C780   1.407       .  A
C779        C786   1.445       .  S
C780        C781   1.405       .  A
C781        C782   1.392       .  A
C781        H784   1.085       .  S
C782        C785   1.445       .  S
C785        N787   1.157       .  T
C786        N788   1.157       .  T
C789        C790   1.406       .  A
C789        C794   1.409       .  A
C790        C791   1.409       .  A
C790        H795   1.085       .  S
C791        C792   1.410       .  A
C791        C798   1.443       .  S
C792        C793   1.404       .  A
C793        C794   1.399       .  A
C793        H796   1.085       .  S
C794        C797   1.445       .  S
C797        N799   1.157       .  T
C798        N800   1.157       .  T
C801        C802   1.399       .  A
C801        C806   1.409       .  A
C802        C803   1.385       .  A
C802        H807   1.086       .  S
C803        C804   1.408       .  A
C803        C810   1.447       .  S
C804        C805   1.403       .  A
C805        C806   1.403       .  A
C805        H808   1.085       .  S
C806        C809   1.441       .  S
C809        N811   1.157       .  T
C810        N812   1.157       .  T
C813        C814   1.405       .  A
C813        C818   1.405       .  A
C814        C815   1.396       .  A
C814        H819   1.086       .  S
C815        C816   1.416       .  A
C815        C822   1.445       .  S
C816        C817   1.410       .  A
C817        C818   1.395       .  A
C817        H820   1.084       .  S
C818        C821   1.440       .  S
C821        N823   1.156       .  T
C822        N824   1.157       .  T
C825        C826   1.408       .  A
C825        C830   1.422       .  A
C826        C827   1.410       .  A
C826        H831   1.084       .  S
C827        C828   1.421       .  A
C827        C834   1.443       .  S
C828        C829   1.405       .  A
C829        C830   1.401       .  A
C829        H832   1.082       .  S
C830        C833   1.446       .  S
C833        N835   1.158       .  T
C834        N836   1.157       .  T
C837        C838   1.407       .  A
C837        C842   1.412       .  A
C838        C839   1.409       .  A
C838        H843   1.084       .  S
C839        C840   1.412       .  A
C839        C846   1.443       .  S
C840        C841   1.399       .  A
C841        C842   1.385       .  A
C841        H844   1.086       .  S
C842        C845   1.445       .  S
C845        N847   1.157       .  T
C846        N848   1.157       .  T
C849        C850   1.413       .  A
C849        C854   1.408       .  A
C850        C851   1.404       .  A
C850        H855   1.085       .  S
C851        C852   1.413       .  A
C851        C858   1.444       .  S
C852        C853   1.408       .  A
C853        C854   1.393       .  A
C853        H856   1.085       .  S
C854        C857   1.435       .  S
C857        N859   1.154       .  T
C858        N860   1.157       .  T
C861        C862   1.406       .  A
C861        C866   1.408       .  A
C862        C863   1.407       .  A
C862        H867   1.084       .  S
C863        C864   1.407       .  A
C863        C870   1.442       .  S
C864        C865   1.401       .  A
C865        C866   1.390       .  A
C865        H868   1.086       .  S
C866        C869   1.446       .  S
C869        N871   1.157       .  T
C870        N872   1.157       .  T
C873        C874   1.410       .  A
C873        C878   1.415       .  A
C874        C875   1.390       .  A
C874        H879   1.084       .  S
C875        C876   1.408       .  A
C875        C882   1.446       .  S
C876        C877   1.407       .  A
C877        C878   1.402       .  A
C877        H880   1.085       .  S
C878        C881   1.444       .  S
C881        N883   1.158       .  T
C882        N884   1.157       .  T
C885        C886   1.404       .  A
C885        C890   1.411       .  A
C886        C887   1.400       .  A
C886        H891   1.085       .  S
C887        C888   1.410       .  A
C887        C894   1.445       .  S
C888        C889   1.406       .  A
C889        C890   1.410       .  A
C889        H892   1.084       .  S
C890        C893   1.443       .  S
C893        N895   1.157       .  T
C894        N896   1.157       .  T
C897        C898   1.400       .  A
C897        C902   1.415       .  A
C898        C899   1.396       .  A
C898        H903   1.085       .  S
C899        C900   1.412       .  A
C899        C906   1.444       .  S
C900        C901   1.404       .  A
C901        C902   1.410       .  A
C901        H904   1.084       .  S
C902        C905   1.443       .  S
C905        N907   1.157       .  T
C906        N908   1.157       .  T
C909        C910   1.404       .  A
C909        C914   1.416       .  A
C910        C911   1.398       .  A
C910        H915   1.085       .  S
C911        C912   1.416       .  A
C911        C918   1.443       .  S
C912        C913   1.404       .  A
C913        C914   1.393       .  A
C913        H916   1.085       .  S
C914        C917   1.446       .  S
C917        N919   1.157       .  T
C918        N920   1.157       .  T
C921        C922   1.406       .  A
C921        C926   1.417       .  A
C922        C923   1.399       .  A
C922        H927   1.085       .  S
C923        C924   1.411       .  A
C923        C930   1.446       .  S
C924        C925   1.404       .  A
C925        C926   1.410       .  A
C925        H928   1.084       .  S
C926        C929   1.443       .  S
C929        N931   1.157       .  T
C930        N932   1.157       .  T
C933        C934   1.408       .  A
C933        C938   1.417       .  A
C934        C935   1.400       .  A
C934        H939   1.085       .  S
C935        C936   1.418       .  A
C935        C942   1.442       .  S
C936        C937   1.413       .  A
C937        C938   1.411       .  A
C937        H940   1.084       .  S
C938        C941   1.443       .  S
C941        N943   1.157       .  T
C942        N944   1.156       .  T
C945        C946   1.400       .  A
C945        C950   1.417       .  A
C946        C947   1.392       .  A
C946        H951   1.085       .  S
C947        C948   1.413       .  A
C947        C954   1.446       .  S
C948        C949   1.401       .  A
C949        C950   1.402       .  A
C949        H952   1.085       .  S
C950        C953   1.444       .  S
C953        N955   1.157       .  T
C954        N956   1.157       .  T
C957        C958   1.404       .  A
C957        C962   1.406       .  A
C958        C959   1.408       .  A
C958        H963   1.084       .  S
C959        C960   1.414       .  A
C959        C966   1.443       .  S
C960        C961   1.403       .  A
C961        C962   1.386       .  A
C961        H964   1.086       .  S
C962        C965   1.445       .  S
C965        N967   1.156       .  T
C966        N968   1.157       .  T
C969        C970   1.404       .  A
C969        C974   1.416       .  A
C970        C971   1.405       .  A
C970        H975   1.084       .  S
C971        C972   1.411       .  A
C971        C978   1.442       .  S
C972        C973   1.400       .  A
C973        C974   1.396       .  A
C973        H976   1.085       .  S
C974        C977   1.446       .  S
C977        N979   1.157       .  T
C978        N980   1.157       .  T
C981        C982   1.409       .  A
C981        C986   1.409       .  A
C982        C983   1.403       .  A
C982        H987   1.085       .  S
C983        C984   1.407       .  A
C983        C990   1.440       .  S
C984        C985   1.408       .  A
C985        C986   1.399       .  A
C985        H988   1.085       .  S
C986        C989   1.443       .  S
C989        N991   1.157       .  T
C990        N992   1.156       .  T
