geometry optimzed in LAMMPS
_audit_creation_date              2020-11-30 
_audit_creation_method            'lammps2cif' 
_symmetry_space_group_name_H-M    'P1' 
_symmetry_Int_Tables_number       1 
_symmetry_cell_setting            triclinic 
loop_ 
_symmetry_equiv_pos_as_xyz 
  x,y,z 
_cell_length_a                    56.23444772 
_cell_length_b                    42.177615134106915 
_cell_length_c                    35.05433692234906 
_cell_angle_alpha                 90.01613591063105 
_cell_angle_beta                  90.02643617381028 
_cell_angle_gamma                 90.13667679240322 
loop_ 
_atom_site_label 
_atom_site_type_symbol 
_atom_site_fract_x 
_atom_site_fract_y 
_atom_site_fract_z 
_atom_site_charge 
O1          O  0.46050201  0.43535987  0.43484990    -0.75400
O2          O  0.43346938  0.46580231  0.46632484    -0.54300
C3          C  0.43906933  0.44285142  0.44395368     0.78300
O4          O  0.04238714  0.43588496  0.06966995    -0.60000
O5          O  0.07012303  0.46447119  0.03669320    -0.53000
C6          C  0.06397011  0.44227603  0.05980716     0.70400
O7          O  0.46265484  0.43556271  0.07127198    -0.74500
O8          O  0.43442508  0.46740740  0.04453510    -0.55100
C9          C  0.44095099  0.44360848  0.06481828     0.76400
O10         O  0.04003253  0.43400264  0.42817322    -0.59700
O11         O  0.06877437  0.46457622  0.45578918    -0.52800
C12         C  0.06190379  0.44154313  0.43436714     0.73000
Zr13       Zr  0.50082185  0.45298772  0.44854939     2.54700
O14         O  0.49927405  0.39560350  0.45545652    -0.80300
O15         O  0.99943877  0.45563408  0.37636515    -0.93700
Zr16       Zr  0.50264140  0.45511839  0.05767095     2.64700
O17         O  0.50074348  0.39819242  0.06908798    -0.98600
O18         O  0.00242823  0.46576042  0.12597804    -0.80700
O19         O  0.47952665  0.45571130  0.50665314    -0.84000
O20         O  0.02470878  0.45414754  0.50117638    -2.18800
O21         O  0.04198879  0.06268018  0.42144331    -0.67400
O22         O  0.06975966  0.03532154  0.45565135    -0.52000
C23         C  0.06359077  0.05602747  0.43062789     0.71300
O24         O  0.46424832  0.07244262  0.06893404    -0.60300
O25         O  0.43526461  0.04058731  0.04389324    -0.52300
C26         C  0.44236142  0.06475733  0.06312891     0.73100
O27         O  0.04441471  0.06740961  0.06803167    -0.71700
O28         O  0.07131620  0.03609254  0.03708826    -0.50400
C29         C  0.06577932  0.05923214  0.05917591     0.74500
O30         O  0.46187140  0.06628287  0.42709908    -0.67100
O31         O  0.43425236  0.03903938  0.46182604    -0.54300
C32         C  0.44033418  0.06005605  0.43712481     0.72900
Zr33       Zr  0.00191284  0.04701168  0.44093919     2.77500
O34         O  0.00217647  0.10457118  0.43532801    -0.97800
O35         O  0.00028978  0.03939314  0.37216216    -0.78600
Zr36       Zr  0.00375484  0.04925201  0.05571592     2.70100
O37         O  0.00536644  0.10664182  0.06222667    -0.79900
O38         O  0.00372866  0.04356208  0.12483283    -0.99000
Zr39       Zr  0.45619254  0.00352595  0.00341419     2.21500
Zr40       Zr  0.04796163  0.50135059  0.49708514     2.11100
O41         O  0.02518331  0.04884015  0.99754275    -2.47700
O42         O  0.47955368  0.05049834  0.00051484    -0.79700
O43         O  0.02439040  0.49994768  0.44059462    -0.71900
O44         O  0.47982932  0.00416889  0.06008533    -2.32800
O45         O  0.47763254  0.00111674  0.44382961    -2.29000
O46         O  0.02628803  0.50255633  0.05582205    -0.73600
H47         H  0.03341439  0.43464578  0.99915399     0.78400
H48         H  0.46996828  0.00472307  0.08261929     0.79500
H49         H  0.03618367  0.06687610  0.49505890     0.81700
H50         H  0.46679730  0.00059028  0.42246458     0.79300
H51         H  0.52083618  0.47105617  0.13108932     0.42300
H52         H  0.01335712  0.06167330  0.13413278     0.41300
H53         H  0.50342876  0.11587228  0.03527258     0.41000
H54         H  0.01649231  0.11159510  0.44948217     0.38900
H55         H  0.01307342  0.02394430  0.36666756     0.42000
H56         H  0.48763280  0.46527150  0.37142940     0.36800
H57         H  0.49329459  0.39213373  0.48170778     0.42900
H58         H  0.00829123  0.38972240  0.04677805     0.39400
H59         H  0.00594077  0.10871008  0.40819036     0.44300
H60         H  0.49590692  0.42985075  0.37259847     0.43000
H61         H  0.51014598  0.39457271  0.09256527     0.43100
H62         H  0.98727139  0.04866365  0.13270087     0.43500
O63         O  0.29289290  0.31741206  0.18009990    -0.75400
O64         O  0.32033043  0.28942532  0.21418940    -0.54300
C65         C  0.31439058  0.31108410  0.19017497     0.78300
O66         O  0.21041768  0.31212518  0.32643858    -0.60000
O67         O  0.18321390  0.28497766  0.29095444    -0.53000
C68         C  0.18893165  0.30491292  0.31720263     0.70400
O69         O  0.29025687  0.31820794  0.32464977    -0.74500
O70         O  0.31881421  0.28835804  0.29569042    -0.55100
C71         C  0.31205121  0.31106987  0.31766934     0.76400
O72         O  0.21312279  0.31569147  0.17467827    -0.59700
O73         O  0.18483077  0.28780863  0.20718116    -0.52800
C74         C  0.19136010  0.30890223  0.18270689     0.73000
Zr75       Zr  0.25275538  0.29900324  0.19456226     2.54700
O76         O  0.25230060  0.35667102  0.19317958    -0.80300
O77         O  0.25399035  0.29473951  0.12529274    -0.93700
Zr78       Zr  0.25087226  0.29822803  0.30830824     2.64700
O79         O  0.24693885  0.35550386  0.31377119    -0.98600
O80         O  0.25221316  0.29117642  0.37719386    -0.80700
O81         O  0.27463134  0.29970864  0.25245251    -0.84000
O82         O  0.22902381  0.29944027  0.25046335    -2.18800
O83         O  0.21341524  0.18807138  0.17455959    -0.67400
O84         O  0.18511921  0.21566871  0.20716809    -0.52000
C85         C  0.19162756  0.19432453  0.18320237     0.71300
O86         O  0.29094008  0.18663392  0.32510493    -0.60300
O87         O  0.31908880  0.21670572  0.29522124    -0.52300
C88         C  0.31264255  0.19457146  0.31833839     0.73100
O89         O  0.21133961  0.18884320  0.32408109    -0.71700
O90         O  0.18376554  0.21635168  0.28983534    -0.50400
C91         C  0.18978858  0.19549340  0.31480638     0.74500
O92         O  0.29395971  0.18982420  0.17765827    -0.67100
O93         O  0.32101671  0.21818767  0.21223499    -0.54300
C94         C  0.31544352  0.19741813  0.18682677     0.72900
Zr95       Zr  0.25327844  0.20527561  0.19389688     2.77500
O96         O  0.25482364  0.14756716  0.19462966    -0.97800
O97         O  0.25374113  0.20830525  0.12456250    -0.78600
Zr98       Zr  0.25145337  0.20489208  0.30719300     2.70100
O99         O  0.25009695  0.14721612  0.30772999    -0.79900
O100        O  0.25104464  0.20937809  0.37643061    -0.99000
Zr101      Zr  0.29779312  0.25255057  0.25319581     2.21500
Zr102      Zr  0.20637025  0.25165630  0.24885060     2.11100
O103        O  0.22942835  0.20425027  0.24958818    -2.47700
O104        O  0.27535008  0.20470188  0.25156034    -0.79700
O105        O  0.22969642  0.25190293  0.19213760    -0.71900
O106        O  0.27451685  0.25186564  0.30995011    -2.32800
O107        O  0.27629655  0.25247951  0.19446322    -2.29000
O108        O  0.22780527  0.25128938  0.30738426    -0.73600
H109        H  0.21881894  0.31782362  0.25037369     0.78400
H110        H  0.28445662  0.25186042  0.33243374     0.79500
H111        H  0.21938049  0.18568212  0.24922453     0.81700
H112        H  0.28696675  0.25280836  0.17288004     0.79300
H113        H  0.25135754  0.31297042  0.38758167     0.42300
H114        H  0.23838746  0.22501542  0.38191769     0.41300
H115        H  0.25617382  0.14094637  0.28232288     0.41000
H116        H  0.23951225  0.14079280  0.20597792     0.38900
H117        H  0.24242998  0.22549280  0.11830473     0.42000
H118        H  0.27051858  0.28843399  0.11928648     0.36800
H119        H  0.25936465  0.36307569  0.21789310     0.42900
H120        H  0.25656725  0.36414139  0.29254949     0.39400
H121        H  0.25363713  0.14137574  0.16744946     0.44300
H122        H  0.25280953  0.31690096  0.11620513     0.43000
H123        H  0.25577576  0.36127311  0.33721365     0.43100
H124        H  0.24445155  0.18891556  0.38539064     0.43500
C125        C  0.10498759  0.12890422  0.08561900    -0.11500
C126        C  0.12196855  0.11429719  0.10896997     0.15100
C127        C  0.12085703  0.08117670  0.11490225     0.02000
C128        C  0.10255293  0.06356597  0.09787013    -0.15800
C129        C  0.08536910  0.07833252  0.07499023    -0.10600
C130        C  0.08693069  0.11125631  0.06824101     0.08700
C131        C  0.14000332  0.13461547  0.12763088     0.09700
S132        S  0.14187407  0.06011940  0.14432547    -0.25000
H133        H  0.10149893  0.03824597  0.10293521     0.20000
S134        S  0.06680647  0.13183796  0.03686593    -0.30700
H135        H  0.10589904  0.15425979  0.08078072     0.10300
C136        C  0.15954928  0.14682824  0.10723794     0.03500
C137        C  0.17589486  0.16670755  0.12584887    -0.13000
C138        C  0.17288917  0.17510467  0.16436528    -0.08600
C139        C  0.15290987  0.16316378  0.18442413     0.07000
C140        C  0.13691851  0.14283603  0.16599195    -0.13700
S141        S  0.16408201  0.13618120  0.05787814    -0.30600
H142        H  0.19117221  0.17563740  0.11039822     0.11200
S143        S  0.14750846  0.17146404  0.23403630    -0.27700
H144        H  0.12178607  0.13354447  0.18156886     0.08400
H145        H  0.06556666  0.10727762  0.00980260     0.26900
H146        H  0.18391936  0.15585539  0.05150160     0.21700
H147        H  0.14268327  0.20370601  0.22724902     0.27000
H148        H  0.16111198  0.08087292  0.13853489     0.15800
C149        C  0.13079982  0.16781824  0.35704695    -0.11500
C150        C  0.13602631  0.13592991  0.36472204     0.15100
C151        C  0.15902456  0.12426589  0.35714485     0.02000
C152        C  0.17609368  0.14448163  0.34152463    -0.15800
C153        C  0.17095435  0.17635904  0.33329931    -0.10600
C154        C  0.14811697  0.18831519  0.34212966     0.08700
C155        C  0.11747019  0.11563690  0.38190759     0.09700
S156        S  0.16802103  0.08409215  0.36739510    -0.25000
H157        H  0.19352789  0.13494708  0.33513451     0.20000
S158        S  0.14039023  0.22959438  0.33721236    -0.30700
H159        H  0.11329707  0.17697113  0.36372814     0.10300
C160        C  0.11726560  0.10917005  0.42131823     0.03500
C161        C  0.09994264  0.08869079  0.43623883    -0.13000
C162        C  0.08268190  0.07477338  0.41253618    -0.08600
C163        C  0.08312727  0.08108262  0.37294133     0.07000
C164        C  0.10033666  0.10170729  0.35812840    -0.13700
S165        S  0.13872231  0.12762977  0.45265465    -0.30600
H166        H  0.09940016  0.08416340  0.46664423     0.11200
S167        S  0.06287966  0.06259146  0.33978192    -0.27700
H168        H  0.10075103  0.10637953  0.32772973     0.08400
H169        H  0.16276790  0.24108584  0.34885040     0.26900
H170        H  0.13041519  0.11389898  0.48672296     0.21700
H171        H  0.06130166  0.03370818  0.35970306     0.27000
H172        H  0.14553980  0.06991957  0.36350274     0.15800
C173        C  0.15594500  0.35415479  0.10764864    -0.11500
C174        C  0.13701359  0.36567756  0.12955739     0.15100
C175        C  0.13558262  0.35762954  0.16856156     0.02000
C176        C  0.15334953  0.33882602  0.18499499    -0.15800
C177        C  0.17255069  0.32752987  0.16328266    -0.10600
C178        C  0.17376084  0.33524676  0.12401842     0.08700
C179        C  0.11894018  0.38583644  0.11078817     0.09700
S180        S  0.11172980  0.37099192  0.19889972    -0.25000
H181        H  0.15230849  0.33325026  0.21512801     0.20000
S182        S  0.19727619  0.32008377  0.09404580    -0.30700
H183        H  0.15668545  0.36007654  0.07761544     0.10300
C184        C  0.11963305  0.41918029  0.11347611     0.03500
C185        C  0.10170477  0.43718775  0.09595150    -0.13000
C186        C  0.08309562  0.42244033  0.07591951    -0.08600
C187        C  0.08304932  0.38907734  0.07203318     0.07000
C188        C  0.10082657  0.37117294  0.08969798    -0.13700
S189        S  0.14331115  0.43871614  0.13923285    -0.30600
H190        H  0.10188287  0.46278289  0.09843237     0.11200
S191        S  0.06130927  0.36807206  0.04387688    -0.27700
H192        H  0.10057169  0.34557481  0.08698947     0.08400
H193        H  0.19116627  0.33693513  0.06083970     0.26900
H194        H  0.13621966  0.46998370  0.13119313     0.21700
H195        H  0.05985220  0.39133499  0.01527540     0.27000
H196        H  0.09401468  0.37137823  0.17063580     0.15800
C197        C  0.35158794  0.15260958  0.11239940    -0.11500
C198        C  0.37212395  0.14524253  0.13311409     0.15100
C199        C  0.37482804  0.15718841  0.17051036     0.02000
C200        C  0.35625321  0.17442158  0.18716816    -0.15800
C201        C  0.33517648  0.18086062  0.16695256    -0.10600
C202        C  0.33336008  0.17066724  0.12852748     0.08700
C203        C  0.38993795  0.12421330  0.11516798     0.09700
S204        S  0.40135207  0.15096934  0.19851264    -0.25000
H205        H  0.35819277  0.18250928  0.21634313     0.20000
S206        S  0.30881210  0.18085116  0.09786503    -0.30700
H207        H  0.34974133  0.14414663  0.08334228     0.10300
C208        C  0.39269550  0.09248584  0.12705470     0.03500
C209        C  0.40977964  0.07334671  0.10929035    -0.13000
C210        C  0.42405336  0.08533144  0.07987429    -0.08600
C211        C  0.42072256  0.11667762  0.06700075     0.05200
C212        C  0.40369655  0.13587938  0.08486278    -0.13700
S213        S  0.37414581  0.07620128  0.16430558    -0.30600
H214        H  0.41225924  0.04908198  0.11853615     0.11200
S215        S  0.43752939  0.13178526  0.02698412    -0.27700
H216        H  0.40108486  0.16006025  0.07539948     0.08400
H217        H  0.30671634  0.21201716  0.11182009     0.26900
H218        H  0.38293758  0.04504031  0.16249002     0.21700
H219        H  0.42580820  0.16113172  0.02419342     0.27000
H220        H  0.41707729  0.14694844  0.16777398     0.15800
C221        C  0.38154333  0.39660906  0.42820278    -0.11500
C222        C  0.38541269  0.38448782  0.39154653     0.15100
C223        C  0.40658176  0.39204292  0.37203198     0.02000
C224        C  0.42359905  0.41112606  0.38986685    -0.15800
C225        C  0.41981608  0.42361963  0.42659071    -0.10600
C226        C  0.39840438  0.41610080  0.44588647     0.08700
C227        C  0.36664164  0.36501212  0.37383853     0.09700
S228        S  0.41294561  0.37805654  0.32444813    -0.25000
H229        H  0.43984357  0.41664277  0.37458901     0.20000
S230        S  0.39221882  0.42859010  0.49392319    -0.30700
H231        H  0.36526012  0.39072197  0.44318395     0.10300
C232        C  0.36874792  0.33190462  0.37015848     0.03500
C233        C  0.35078784  0.31485952  0.35131843    -0.13000
C234        C  0.33068942  0.33032401  0.33643332    -0.08600
C235        C  0.32881528  0.36368018  0.34033424     0.07000
C236        C  0.34661281  0.38045109  0.35940380    -0.13700
S237        S  0.39407524  0.31145379  0.39001109    -0.30600
H238        H  0.35222853  0.28936293  0.34858530     0.11200
S239        S  0.30503943  0.38685048  0.32015703    -0.27700
H240        H  0.34522695  0.40599754  0.36201520     0.08400
H241        H  0.38971937  0.46058826  0.48335108     0.26900
H242        H  0.38645148  0.28055472  0.38100506     0.21700
H243        H  0.30219292  0.36820938  0.28725352     0.27000
H244        H  0.38932725  0.37807770  0.31132902     0.15800
C245        C  0.38187149  0.08674600  0.39316525    -0.11500
C246        C  0.38596178  0.11941947  0.38967796     0.15100
C247        C  0.40770825  0.13237872  0.40241103     0.02000
C248        C  0.42531980  0.11223068  0.41647737    -0.15800
C249        C  0.42139800  0.07944318  0.41977018    -0.10600
C250        C  0.39930974  0.06660745  0.40802601     0.08700
C251        C  0.36754175  0.13914656  0.37139915     0.09700
S252        S  0.41386150  0.17438690  0.40226290    -0.25000
H253        H  0.44197435  0.12241704  0.42618879     0.20000
S254        S  0.39253729  0.02480298  0.40987220    -0.30700
H255        H  0.36513759  0.07679007  0.38347693     0.10300
C256        C  0.37050548  0.15103978  0.33418149     0.03500
C257        C  0.35251909  0.16953750  0.31782633    -0.13000
C258        C  0.33159389  0.17653775  0.33801624    -0.08600
C259        C  0.32902234  0.16510007  0.37580555     0.07000
C260        C  0.34679856  0.14612560  0.39173594    -0.13700
S261        S  0.39672708  0.14163284  0.30682476    -0.30600
H262        H  0.35450802  0.17784995  0.28878426     0.11200
S263        S  0.30419778  0.17507133  0.40598384    -0.27700
H264        H  0.34472861  0.13732107  0.42059414     0.08400
H265        H  0.41558363  0.01467238  0.40024052     0.26900
H266        H  0.39374382  0.16601350  0.27992074     0.21700
H267        H  0.30253424  0.20656995  0.39303212     0.27000
H268        H  0.39020125  0.18417691  0.40738023     0.15800
C269        C  0.11923118  0.41243499  0.38847826    -0.11500
C270        C  0.11525249  0.37959962  0.38804281     0.15100
C271        C  0.09376807  0.36735020  0.40272356     0.02000
C272        C  0.07650043  0.38823225  0.41648803    -0.15800
C273        C  0.08033515  0.42118900  0.41688281    -0.10600
C274        C  0.10199730  0.43335161  0.40241686     0.08700
C275        C  0.13338949  0.35898325  0.37040998     0.09700
S276        S  0.08727166  0.32543660  0.40479833    -0.25000
H277        H  0.06012962  0.37854832  0.42796569     0.20000
S278        S  0.10829929  0.47521096  0.39920282    -0.30700
H279        H  0.13566514  0.42188374  0.37694665     0.10300
C280        C  0.13050927  0.34708116  0.33318116     0.03500
C281        C  0.14853106  0.32857492  0.31696776    -0.13000
C282        C  0.16946105  0.32170004  0.33727443    -0.08600
C283        C  0.17175912  0.33250814  0.37540148     0.07000
C284        C  0.15381562  0.35139835  0.39127831    -0.13700
S285        S  0.10426465  0.35651524  0.30580457    -0.30600
H286        H  0.14663484  0.32033772  0.28787187     0.11200
S287        S  0.19669602  0.32111846  0.40494908    -0.27700
H288        H  0.15546947  0.36008108  0.42023130     0.08400
H289        H  0.08492799  0.48389483  0.38945348     0.26900
H290        H  0.10919126  0.33635284  0.27486276     0.21700
H291        H  0.19112101  0.34027107  0.43653020     0.27000
H292        H  0.11090658  0.31478998  0.40613162     0.15800
C293        C  0.40491027  0.37247429  0.09682750    -0.11500
C294        C  0.38678233  0.38719364  0.11764462     0.15100
C295        C  0.38612118  0.42057237  0.12015296     0.02000
C296        C  0.40388916  0.43851227  0.10239295    -0.15800
C297        C  0.42217282  0.42379297  0.08178360    -0.10600
C298        C  0.42235936  0.39040201  0.07835477     0.08700
C299        C  0.36855129  0.36709802  0.13581042     0.09700
S300        S  0.36328734  0.44152719  0.14592514    -0.25000
H301        H  0.40355632  0.46412476  0.10491064     0.20000
S302        S  0.44365136  0.36940767  0.04940297    -0.30700
H303        H  0.40514967  0.34686008  0.09433224     0.10300
C304        C  0.34914706  0.35535453  0.11473760     0.03500
C305        C  0.33171305  0.33719205  0.13321636    -0.13000
C306        C  0.33349455  0.33017336  0.17232649    -0.08600
C307        C  0.35321647  0.34190623  0.19319268     0.07000
C308        C  0.37053964  0.36007798  0.17468178    -0.13700
S309        S  0.34649800  0.36408605  0.06445503    -0.30600
H310        H  0.31671209  0.32819527  0.11710295     0.11200
S311        S  0.35668241  0.33615427  0.24374190    -0.27700
H312        H  0.38546832  0.36934415  0.19081298     0.08400
H313        H  0.44510754  0.39276402  0.02082629     0.26900
H314        H  0.32496889  0.34780954  0.05845992     0.21700
H315        H  0.33257971  0.34182147  0.25151216     0.27000
H316        H  0.34478145  0.42019469  0.13751622     0.15800
O317        O  0.45925502  0.43621130  0.93267319    -0.75400
O318        O  0.43251475  0.46665832  0.96470574    -0.54300
C319        C  0.43791220  0.44396415  0.94192481     0.78300
O320        O  0.04413906  0.43850804  0.57161119    -0.60000
O321        O  0.07136930  0.46640470  0.53681308    -0.53000
C322        C  0.06557138  0.44477516  0.56091290     0.70400
O323        O  0.46395745  0.43785091  0.57507160    -0.74500
O324        O  0.43532983  0.46746279  0.54589676    -0.55100
C325        C  0.44214180  0.44445865  0.56730338     0.76400
O326        O  0.03932675  0.43584655  0.92435991    -0.59700
O327        O  0.06833235  0.46381623  0.95518317    -0.52800
C328        C  0.06124254  0.44232806  0.93166897     0.73000
Zr329      Zr  0.49970699  0.45408663  0.94407446     2.54700
O330        O  0.49967341  0.39639597  0.94485544    -0.80300
O331        O  0.99743409  0.45491705  0.87461599    -0.93700
Zr332      Zr  0.50353995  0.45923973  0.56219387     2.64700
O333        O  0.50285057  0.40388131  0.58210569    -0.98600
O334        O  0.00534641  0.46866871  0.62768995    -0.80700
O335        O  0.47844315  0.45461710  0.00226171    -0.84000
O336        O  0.02378704  0.45351842  0.99955265    -2.18800
O337        O  0.04104975  0.06298187  0.92118944    -0.67400
O338        O  0.06920807  0.03595033  0.95492917    -0.52000
C339        C  0.06274238  0.05640751  0.92982062     0.71300
O340        O  0.46513676  0.07339282  0.56846336    -0.60300
O341        O  0.43610757  0.04201052  0.54297975    -0.52300
C342        C  0.44321971  0.06599695  0.56263997     0.73100
O343        O  0.04511839  0.06850186  0.56634181    -0.71700
O344        O  0.07158051  0.03535681  0.53726319    -0.50400
C345        C  0.06637160  0.05942603  0.55818989     0.74500
O346        O  0.46093189  0.06835321  0.93017382    -0.67100
O347        O  0.43348878  0.03963128  0.96355261    -0.54300
C348        C  0.43945794  0.06163646  0.93994482     0.72900
Zr349      Zr  0.00123725  0.04761851  0.94198363     2.77500
O350        O  0.00248555  0.10525653  0.93756387    -0.97800
O351        O  0.99761770  0.04054044  0.87330078    -0.78600
Zr352      Zr  0.00440969  0.05066050  0.55472071     2.70100
O353        O  0.00500993  0.10832213  0.55576869    -0.79900
O354        O  0.00756594  0.04769836  0.62389913    -0.99000
Zr355      Zr  0.45665435  0.00403960  0.50288660     2.21500
Zr356      Zr  0.04745835  0.50031434  0.99696420     2.11100
O357        O  0.02578887  0.04870374  0.49654962    -2.47700
O358        O  0.48031896  0.05069778  0.49884742    -0.79700
O359        O  0.02418496  0.49981578  0.94006996    -0.71900
O360        O  0.48005944  0.00540092  0.55969694    -2.32800
O361        O  0.47688363  0.00202340  0.94397612    -2.29000
O362        O  0.02745544  0.50382652  0.55651570    -0.73600
H363        H  0.03449346  0.43541571  0.50113842     0.78400
H364        H  0.47010684  0.00649299  0.58209476     0.79500
H365        H  0.03539172  0.06725268  0.99635560     0.81700
H366        H  0.46595573  0.00176930  0.92269875     0.79300
H367        H  0.51702083  0.46013667  0.64051581     0.42300
H368        H  0.01412997  0.06856980  0.63155648     0.41300
H369        H  0.50588360  0.11635686  0.53286550     0.41000
H370        H  0.01702766  0.11163989  0.95156790     0.38900
H371        H  0.99505025  0.06219587  0.86324958     0.42000
H372        H  0.48090878  0.46501451  0.86951449     0.36800
H373        H  0.49791449  0.39079752  0.97214579     0.42900
H374        H  0.00954332  0.39076191  0.55053988     0.39400
H375        H  0.00612866  0.10969081  0.91045150     0.44300
H376        H  0.49553112  0.43355735  0.86693249     0.43000
H377        H  0.51314768  0.40270115  0.60497858     0.43100
H378        H  0.99093413  0.04799307  0.63308075     0.43500
O379        O  0.29345119  0.31865371  0.68220729    -0.75400
O380        O  0.32073824  0.28856129  0.71365541    -0.54300
C381        C  0.31497384  0.31134373  0.69118700     0.78300
O382        O  0.21053626  0.31258994  0.82644214    -0.60000
O383        O  0.18353909  0.28583770  0.79020800    -0.53000
C384        C  0.18909575  0.30582255  0.81648915     0.70400
O385        O  0.29035339  0.31893399  0.82218509    -0.74500
O386        O  0.31876099  0.28827176  0.79401243    -0.55100
C387        C  0.31208309  0.31156101  0.81512032     0.76400
O388        O  0.21348266  0.31670021  0.67505518    -0.59700
O389        O  0.18503513  0.28810950  0.70624824    -0.52800
C390        C  0.19171273  0.30957361  0.68236697     0.73000
Zr391      Zr  0.25302967  0.30011070  0.69464491     2.54700
O392        O  0.25237819  0.35783034  0.69433543    -0.80300
O393        O  0.25505683  0.29821825  0.62528815    -0.93700
Zr394      Zr  0.25089300  0.29836355  0.80795125     2.64700
O395        O  0.24617771  0.35565785  0.81151521    -0.98600
O396        O  0.25395175  0.29412376  0.87702555    -0.80700
O397        O  0.27485259  0.29998623  0.75234535    -0.84000
O398        O  0.22906010  0.29993497  0.75025946    -2.18800
O399        O  0.21303419  0.18936507  0.67327140    -0.67400
O400        O  0.18479874  0.21719264  0.70563523    -0.52000
C401        C  0.19128713  0.19585598  0.68163589     0.71300
O402        O  0.29112077  0.18725335  0.82391680    -0.60300
O403        O  0.31926717  0.21692390  0.79347279    -0.52300
C404        C  0.31283067  0.19515180  0.81699022     0.73100
O405        O  0.21095056  0.18823998  0.82226562    -0.71700
O406        O  0.18366626  0.21593456  0.78774510    -0.50400
C407        C  0.18942691  0.19482511  0.81255156     0.74500
O408        O  0.29290689  0.19025630  0.67532991    -0.67100
O409        O  0.32012270  0.21854280  0.70939413    -0.54300
C410        C  0.31441534  0.19775976  0.68402980     0.72900
Zr411      Zr  0.25278212  0.20618341  0.69264920     2.77500
O412        O  0.25368342  0.14845270  0.69303630    -0.97800
O413        O  0.25266426  0.20901580  0.62330036    -0.78600
Zr414      Zr  0.25128430  0.20464638  0.80602641     2.70100
O415        O  0.25047020  0.14696499  0.80656384    -0.79900
O416        O  0.25161222  0.20629940  0.87541647    -0.99000
Zr417      Zr  0.29751159  0.25238788  0.75206193     2.21500
Zr418      Zr  0.20641011  0.25215631  0.74820923     2.11100
O419        O  0.22916492  0.20458226  0.74845239    -2.47700
O420        O  0.27503878  0.20456576  0.75015796    -0.79700
O421        O  0.22971225  0.25316856  0.69151305    -0.71900
O422        O  0.27429038  0.25169367  0.80902360    -2.32800
O423        O  0.27603999  0.25319567  0.69345542    -2.29000
O424        O  0.22777527  0.25131483  0.80699125    -0.73600
H425        H  0.21882628  0.31829387  0.75036752     0.78400
H426        H  0.28428963  0.25160835  0.83143824     0.79500
H427        H  0.21901572  0.18611760  0.74778330     0.81700
H428        H  0.28671437  0.25366058  0.67190421     0.79300
H429        H  0.24040209  0.28044865  0.88447155     0.42300
H430        H  0.23788582  0.21979456  0.88223866     0.41300
H431        H  0.25049130  0.14090490  0.77928819     0.41000
H432        H  0.23946902  0.14202064  0.70781741     0.38900
H433        H  0.26242152  0.22790309  0.61718003     0.42000
H434        H  0.27169725  0.29232858  0.61948337     0.36800
H435        H  0.24055118  0.36364548  0.71403164     0.42900
H436        H  0.25599531  0.36401197  0.79034297     0.39400
H437        H  0.24995878  0.14230315  0.66643564     0.44300
H438        H  0.25384570  0.32066686  0.61728131     0.43000
H439        H  0.25472925  0.36202273  0.83501018     0.43100
H440        H  0.24682098  0.18466600  0.88331576     0.43500
C441        C  0.10508340  0.12937578  0.58595849    -0.11500
C442        C  0.12308806  0.11445129  0.60680103     0.15100
C443        C  0.12290398  0.08109589  0.61059011     0.02000
C444        C  0.10443555  0.06351175  0.59390842    -0.15800
C445        C  0.08617270  0.07856901  0.57351608    -0.10600
C446        C  0.08682897  0.11186475  0.56902063     0.08700
C447        C  0.14094366  0.13481883  0.62567485     0.09700
S448        S  0.14526219  0.05972939  0.63699440    -0.25000
H449        H  0.10409477  0.03797430  0.59737269     0.20000
S450        S  0.06524139  0.13337161  0.54127187    -0.30700
H451        H  0.10528729  0.15495019  0.58286205     0.10300
C452        C  0.16019060  0.14786347  0.60531635     0.03500
C453        C  0.17604414  0.16835478  0.62400617    -0.13000
C454        C  0.17270748  0.17669640  0.66247430    -0.08600
C455        C  0.15290851  0.16413720  0.68236803     0.07000
C456        C  0.13749692  0.14306467  0.66393571    -0.13700
S457        S  0.16486758  0.13773702  0.55584620    -0.30600
H458        H  0.19122207  0.17775378  0.60869268     0.11200
S459        S  0.14705057  0.17260368  0.73176700    -0.27700
H460        H  0.12247972  0.13330024  0.67938471     0.08400
H461        H  0.06330399  0.11016801  0.51263818     0.26900
H462        H  0.18344382  0.15942400  0.54911856     0.21700
H463        H  0.14236460  0.20485201  0.72477273     0.27000
H464        H  0.16375516  0.08171026  0.63152917     0.15800
C465        C  0.12935888  0.16631214  0.85059993    -0.11500
C466        C  0.13499886  0.13524580  0.86150670     0.15100
C467        C  0.15841418  0.12410796  0.85655168     0.02000
C468        C  0.17568507  0.14426813  0.84125716    -0.15800
C469        C  0.17026119  0.17554339  0.83035761    -0.10600
C470        C  0.14674076  0.18672538  0.83572726     0.08700
C471        C  0.11640022  0.11531815  0.87931681     0.09700
S472        S  0.16743007  0.08447680  0.86941148    -0.25000
H473        H  0.19349764  0.13511297  0.83721893     0.20000
S474        S  0.13798501  0.22705857  0.82627715    -0.30700
H475        H  0.11143525  0.17501767  0.85485420     0.10300
C476        C  0.11691209  0.10822538  0.91859504     0.03500
C477        C  0.09969799  0.08783652  0.93391801    -0.13000
C478        C  0.08163107  0.07495057  0.91095736    -0.08600
C479        C  0.08112216  0.08222052  0.87159555     0.07000
C480        C  0.09839757  0.10249247  0.85628507    -0.13700
S481        S  0.13888001  0.12618240  0.94948520    -0.30600
H482        H  0.09978521  0.08277416  0.96420915     0.11200
S483        S  0.05943273  0.06564814  0.83928873    -0.27700
H484        H  0.09812863  0.10780543  0.82603859     0.08400
H485        H  0.15878106  0.24042358  0.84190487     0.26900
H486        H  0.13161482  0.11117640  0.98338912     0.21700
H487        H  0.05756269  0.03627529  0.85809068     0.27000
H488        H  0.14550521  0.06984030  0.86143458     0.15800
C489        C  0.15871889  0.36000355  0.60964429    -0.11500
C490        C  0.13904666  0.36966881  0.63110908     0.15100
C491        C  0.13606277  0.35818083  0.66856542     0.02000
C492        C  0.15300930  0.33765594  0.68403781    -0.15800
C493        C  0.17314345  0.32855180  0.66305420    -0.10600
C494        C  0.17573350  0.33937911  0.62502792     0.08700
C495        C  0.12084952  0.38946321  0.61244553     0.09700
S496        S  0.11096939  0.36872806  0.69789786    -0.25000
H497        H  0.15080719  0.32951321  0.71314187     0.20000
S498        S  0.19976162  0.32568857  0.59502771    -0.30700
H499        H  0.16044417  0.36831452  0.58054663     0.10300
C500        C  0.12316960  0.42266563  0.60987755     0.03500
C501        C  0.10503798  0.44034146  0.59240597    -0.13000
C502        C  0.08485397  0.42527790  0.57711917    -0.08600
C503        C  0.08332776  0.39182230  0.57815592     0.07000
C504        C  0.10104026  0.37439928  0.59646184    -0.13700
S505        S  0.14886966  0.44241809  0.62975151    -0.30600
H506        H  0.10633280  0.46594558  0.59124169     0.11200
S507        S  0.06007545  0.36977884  0.55467169    -0.27700
H508        H  0.09964703  0.34877708  0.59759612     0.08400
H509        H  0.19228235  0.34053830  0.56117431     0.26900
H510        H  0.14263998  0.47327236  0.61830274     0.21700
H511        H  0.05827144  0.39039460  0.52329048     0.27000
H512        H  0.10734309  0.39899684  0.68227218     0.15800
C513        C  0.34899787  0.14556141  0.61458247    -0.11500
C514        C  0.37083450  0.14296539  0.63345726     0.15100
C515        C  0.37467212  0.16021436  0.66738189     0.02000
C516        C  0.35628248  0.17863918  0.68248720    -0.15800
C517        C  0.33398415  0.18057188  0.66435340    -0.10600
C518        C  0.33080162  0.16461289  0.62901482     0.08700
C519        C  0.38948618  0.12302516  0.61603966     0.09700
S520        S  0.40252798  0.15956219  0.69285980    -0.25000
H521        H  0.35931032  0.19084836  0.70926152     0.20000
S522        S  0.30477192  0.16889474  0.59946383    -0.30700
H523        H  0.34635184  0.13320183  0.58778332     0.10300
C524        C  0.38786761  0.08969329  0.61656294     0.03500
C525        C  0.40554503  0.07164915  0.59867034    -0.13000
C526        C  0.42487793  0.08627462  0.58037838    -0.08600
C527        C  0.42633943  0.11976103  0.57960504     0.05200
C528        C  0.40864446  0.13774468  0.59759872    -0.13700
S529        S  0.36349870  0.07015104  0.64061028    -0.30600
H530        H  0.40448555  0.04601538  0.59927275     0.11200
S531        S  0.44970270  0.13985564  0.55365659    -0.27700
H532        H  0.40942090  0.16339081  0.59683669     0.08400
H533        H  0.30331860  0.20186610  0.60516182     0.26900
H534        H  0.37125491  0.03887795  0.63444582     0.21700
H535        H  0.44319173  0.17097097  0.56355448     0.27000
H536        H  0.40883091  0.12842115  0.68292255     0.15800
C537        C  0.37984333  0.39991533  0.92342992    -0.11500
C538        C  0.38417097  0.38798079  0.88679239     0.15100
C539        C  0.40560823  0.39545702  0.86801672     0.02000
C540        C  0.42262267  0.41371181  0.88688643    -0.15800
C541        C  0.41855166  0.42564774  0.92375752    -0.10600
C542        C  0.39664772  0.41893177  0.94197020     0.08700
C543        C  0.36591240  0.36795241  0.86883342     0.09700
S544        S  0.41258098  0.38236653  0.82024599    -0.25000
H545        H  0.43914712  0.41900687  0.87227708     0.20000
S546        S  0.38951157  0.43251635  0.98925827    -0.30700
H547        H  0.36325754  0.39428087  0.93767794     0.10300
C548        C  0.36796373  0.33470804  0.86794631     0.03500
C549        C  0.35028031  0.31674762  0.84976871    -0.13000
C550        C  0.33069555  0.33152454  0.83246874    -0.08600
C551        C  0.32917652  0.36502569  0.83258255     0.07000
C552        C  0.34653620  0.38276352  0.85141550    -0.13700
S553        S  0.39291528  0.31529042  0.89037344    -0.30600
H554        H  0.35149362  0.29113092  0.84946332     0.11200
S555        S  0.30642325  0.38681258  0.80760327    -0.27700
H556        H  0.34536577  0.40841753  0.85150218     0.08400
H557        H  0.38734499  0.46427019  0.97739136     0.26900
H558        H  0.38624410  0.28407264  0.88103208     0.21700
H559        H  0.30402207  0.36518654  0.77729740     0.27000
H560        H  0.38916213  0.37845674  0.80715440     0.15800
C561        C  0.38221879  0.08835295  0.89198581    -0.11500
C562        C  0.38555637  0.12129437  0.89141210     0.15100
C563        C  0.40639517  0.13446326  0.90729701     0.02000
C564        C  0.42373268  0.11437114  0.92244769    -0.15800
C565        C  0.42050619  0.08131228  0.92302352    -0.10600
C566        C  0.39950061  0.06820269  0.90733065     0.08700
C567        C  0.36747496  0.14111431  0.87243943     0.09700
S568        S  0.41196090  0.17658502  0.90857649    -0.25000
H569        H  0.43976186  0.12467553  0.93442084     0.20000
S570        S  0.39416246  0.02608827  0.90416304    -0.30700
H571        H  0.36629071  0.07823577  0.87945629     0.10300
C572        C  0.37043539  0.15147897  0.83455583     0.03500
C573        C  0.35249905  0.16949598  0.81724018    -0.13000
C574        C  0.33179135  0.17774878  0.83732459    -0.08600
C575        C  0.32950517  0.16850027  0.87598382     0.07000
C576        C  0.34704196  0.14963020  0.89273619    -0.13700
S577        S  0.39673080  0.14097284  0.80792534    -0.30600
H578        H  0.35435578  0.17654044  0.78767770     0.11200
S579        S  0.30552395  0.18155443  0.90622629    -0.27700
H580        H  0.34510425  0.14225413  0.92219180     0.08400
H581        H  0.41804072  0.01760864  0.89814298     0.26900
H582        H  0.39258918  0.16168237  0.77723791     0.21700
H583        H  0.30370638  0.21185524  0.88967803     0.27000
H584        H  0.38810348  0.18549079  0.91364515     0.15800
C585        C  0.11781653  0.41376466  0.88304230    -0.11500
C586        C  0.11350401  0.38103097  0.88139884     0.15100
C587        C  0.09185699  0.36881304  0.89545014     0.02000
C588        C  0.07493097  0.38959668  0.91038187    -0.15800
C589        C  0.07930912  0.42238523  0.91269053    -0.10600
C590        C  0.10095202  0.43459863  0.89822621     0.08700
C591        C  0.13211437  0.36037467  0.86521370     0.09700
S592        S  0.08500444  0.32699581  0.89599644    -0.25000
H593        H  0.05851683  0.37988674  0.92167751     0.20000
S594        S  0.10786006  0.47637258  0.89692857    -0.30700
H595        H  0.13439646  0.42317193  0.87200775     0.10300
C596        C  0.12974359  0.34654793  0.82889492     0.03500
C597        C  0.14834678  0.32820671  0.81426841    -0.13000
C598        C  0.16938079  0.32327681  0.83522336    -0.08600
C599        C  0.17129557  0.33637853  0.87239114     0.07000
C600        C  0.15269929  0.35499693  0.88667866    -0.13700
S601        S  0.10349452  0.35334127  0.80042259    -0.30600
H602        H  0.14675018  0.31853380  0.78577465     0.11200
S603        S  0.19674626  0.32894709  0.90266681    -0.27700
H604        H  0.15406079  0.36546630  0.91480631     0.08400
H605        H  0.08433762  0.48639952  0.89077102     0.26900
H606        H  0.10818712  0.32980744  0.77299607     0.21700
H607        H  0.18882217  0.34590192  0.93478559     0.27000
H608        H  0.10849555  0.31657230  0.90128748     0.15800
C609        C  0.40805852  0.37287123  0.60421890    -0.11500
C610        C  0.38804696  0.38746667  0.62009850     0.15100
C611        C  0.38577680  0.42076157  0.61832743     0.02000
C612        C  0.40333739  0.43865271  0.59998756    -0.15800
C613        C  0.42354400  0.42414736  0.58432088    -0.10600
C614        C  0.42566097  0.39072561  0.58597971     0.08700
C615        C  0.36956814  0.36721640  0.63741383     0.09700
S616        S  0.36113775  0.44183393  0.63931229    -0.25000
H617        H  0.40155371  0.46422133  0.59891766     0.20000
S618        S  0.44957606  0.36919129  0.56366503    -0.30700
H619        H  0.40964599  0.34727167  0.60518666     0.10300
C620        C  0.34790498  0.36117876  0.61863845     0.03500
C621        C  0.33050223  0.34282288  0.63684748    -0.13000
C622        C  0.33425850  0.33040858  0.67360367    -0.08600
C623        C  0.35617794  0.33663506  0.69219435     0.07000
C624        C  0.37368390  0.35439587  0.67361320    -0.13700
S625        S  0.34259052  0.37650414  0.57127767    -0.30600
H626        H  0.31391700  0.33797309  0.62225049     0.11200
S627        S  0.36222021  0.32519782  0.74065629    -0.27700
H628        H  0.39030552  0.35941210  0.68811365     0.08400
H629        H  0.45159020  0.38955732  0.53204537     0.26900
H630        H  0.32003259  0.36267775  0.56604609     0.21700
H631        H  0.33999863  0.33597935  0.75334988     0.27000
H632        H  0.35664481  0.42006601  0.66879968     0.15800
O633        O  0.45943489  0.93637365  0.43481851    -0.75400
O634        O  0.43260569  0.96784063  0.46525483    -0.54300
C635        C  0.43804282  0.94450627  0.44334783     0.78300
O636        O  0.04389931  0.93641522  0.06963280    -0.60000
O637        O  0.07119665  0.96615115  0.03728286    -0.53000
C638        C  0.06538448  0.94353687  0.06001945     0.70400
O639        O  0.46328716  0.93647085  0.07249845    -0.74500
O640        O  0.43485164  0.96748621  0.04500274    -0.55100
C641        C  0.44149033  0.94381365  0.06551360     0.76400
O642        O  0.03913502  0.93569706  0.42482862    -0.59700
O643        O  0.06804464  0.96406167  0.45530005    -0.52800
C644        C  0.06106157  0.94250683  0.43184244     0.73000
Zr645      Zr  0.50011180  0.95367729  0.44641854     2.54700
O646        O  0.49938960  0.89603387  0.44921100    -0.80300
O647        O  0.99765878  0.94961204  0.37642342    -0.93700
Zr648      Zr  0.50301539  0.95710203  0.05869311     2.64700
O649        O  0.50152126  0.90032634  0.07116515    -0.98600
O650        O  0.00444118  0.96618067  0.12598366    -0.80700
O651        O  0.47871881  0.95604060  0.50445131    -0.84000
O652        O  0.02393579  0.95357546  0.50101302    -2.18800
O653        O  0.04099616  0.56280358  0.41975739    -0.67400
O654        O  0.06915656  0.53598527  0.45377586    -0.52000
C655        C  0.06267987  0.55640418  0.42861728     0.71300
O656        O  0.46435280  0.57024908  0.06973153    -0.60300
O657        O  0.43532922  0.53932948  0.04349616    -0.52300
C658        C  0.44242224  0.56305938  0.06353844     0.73100
O659        O  0.04426183  0.56709552  0.06731473    -0.71700
O660        O  0.07106441  0.53497737  0.03733475    -0.50400
C661        C  0.06558898  0.55835835  0.05916736     0.74500
O662        O  0.46093083  0.56537960  0.42815588    -0.67100
O663        O  0.43368931  0.53693396  0.46228436    -0.54300
C664        C  0.43946156  0.55844339  0.43798728     0.72900
Zr665      Zr  0.00134045  0.54705102  0.44096323     2.77500
O666        O  0.00165281  0.60463241  0.43523556    -0.97800
O667        O  0.99784934  0.54016960  0.37226342    -0.78600
Zr668      Zr  0.00361552  0.55003613  0.05386350     2.70100
O669        O  0.00514046  0.60768151  0.05544599    -0.79900
O670        O  0.00488599  0.54690886  0.12316091    -0.99000
Zr671      Zr  0.45623859  0.50249288  0.00279613     2.21500
Zr672      Zr  0.04768374  0.00043799  0.49760327     2.11100
O673        O  0.02540489  0.54857013  0.99601785    -2.47700
O674        O  0.47959533  0.54949190  0.00060480    -0.79700
O675        O  0.02414940  0.99929338  0.44104891    -0.71900
O676        O  0.47971011  0.50232951  0.05957407    -2.32800
O677        O  0.47768801  0.49988179  0.44488706    -2.29000
O678        O  0.02703042  0.00230960  0.05677452    -0.73600
H679        H  0.03456325  0.93507604  0.99885512     0.78400
H680        H  0.46982252  0.50279236  0.08208076     0.79500
H681        H  0.03579642  0.56759418  0.49458515     0.81700
H682        H  0.46685345  0.49886961  0.42354210     0.79300
H683        H  0.51869090  0.95732623  0.13600642     0.42300
H684        H  0.01068755  0.56802518  0.13137620     0.41300
H685        H  0.50859913  0.61379183  0.03674718     0.41000
H686        H  0.01460714  0.61178384  0.45235242     0.38900
H687        H  0.00899426  0.52277209  0.36611254     0.42000
H688        H  0.48136500  0.95920779  0.37097354     0.36800
H689        H  0.49687669  0.89113931  0.47654325     0.42900
H690        H  0.00949432  0.88908987  0.04723979     0.39400
H691        H  0.00764522  0.60886556  0.40916390     0.44300
H692        H  0.49920807  0.93077636  0.36995302     0.43000
H693        H  0.51170095  0.89689391  0.09382336     0.43100
H694        H  0.98802215  0.54637667  0.13120735     0.43500
O695        O  0.29283543  0.81672513  0.18030362    -0.75400
O696        O  0.32027726  0.78769798  0.21288743    -0.54300
C697        C  0.31437627  0.80996109  0.18965502     0.78300
O698        O  0.21085172  0.81401900  0.32456343    -0.60000
O699        O  0.18347701  0.78603849  0.29031780    -0.53000
C700        C  0.18932413  0.80680222  0.31556103     0.70400
O701        O  0.29074411  0.81824219  0.32285570    -0.74500
O702        O  0.31908865  0.78759380  0.29450041    -0.55100
C703        C  0.31249136  0.81073671  0.31595190     0.76400
O704        O  0.21337990  0.81490317  0.17384010    -0.59700
O705        O  0.18488265  0.78759648  0.20662872    -0.52800
C706        C  0.19159973  0.80840676  0.18194699     0.73000
Zr707      Zr  0.25280215  0.79774575  0.19363512     2.54700
O708        O  0.25207910  0.85535968  0.18995378    -0.80300
O709        O  0.25436036  0.79192819  0.12456253    -0.93700
Zr710      Zr  0.25112520  0.79871313  0.30702230     2.64700
O711        O  0.24742095  0.85620030  0.30773686    -0.98600
O712        O  0.25249908  0.79466667  0.37626366    -0.80700
O713        O  0.27490779  0.79892825  0.25124765    -0.84000
O714        O  0.22910434  0.79907671  0.24942167    -2.18800
O715        O  0.21280988  0.68674458  0.17609590    -0.67400
O716        O  0.18458761  0.71541459  0.20750916    -0.52000
C717        C  0.19106207  0.69347811  0.18425495     0.71300
O718        O  0.29038989  0.68647615  0.32531460    -0.60300
O719        O  0.31896223  0.71541054  0.29484857    -0.52300
C720        C  0.31220097  0.69364543  0.31827437     0.73100
O721        O  0.21062241  0.69033533  0.32572901    -0.71700
O722        O  0.18328302  0.71718619  0.29029792    -0.50400
C723        C  0.18910888  0.69687970  0.31599365     0.74500
O724        O  0.29308750  0.68715772  0.17940039    -0.67100
O725        O  0.32053859  0.71667172  0.21162945    -0.54300
C726        C  0.31466653  0.69499313  0.18749993     0.72900
Zr727      Zr  0.25269108  0.70415888  0.19458284     2.77500
O728        O  0.25344413  0.64643207  0.19289368    -0.97800
O729        O  0.25385221  0.70841473  0.12535131    -0.78600
Zr730      Zr  0.25095301  0.70521557  0.30793805     2.70100
O731        O  0.24927578  0.64756253  0.30898109    -0.79900
O732        O  0.25128597  0.70911333  0.37722926    -0.99000
Zr733      Zr  0.29772153  0.75145438  0.25279740     2.21500
Zr734      Zr  0.20614582  0.75159210  0.24879977     2.11100
O735        O  0.22889115  0.70392385  0.25040920    -2.47700
O736        O  0.27478665  0.70396696  0.25223705    -0.79700
O737        O  0.22935733  0.75094336  0.19197705    -0.71900
O738        O  0.27437892  0.75195583  0.30958767    -2.32800
O739        O  0.27608594  0.75100627  0.19422038    -2.29000
O740        O  0.22771439  0.75198641  0.30729192    -0.73600
H741        H  0.21901365  0.81756498  0.24897700     0.78400
H742        H  0.28433784  0.75211991  0.33204878     0.79500
H743        H  0.21873392  0.68545420  0.25045822     0.81700
H744        H  0.28673030  0.75094445  0.17262662     0.79300
H745        H  0.25627772  0.81641377  0.38504968     0.42300
H746        H  0.23894488  0.72506074  0.38321409     0.41300
H747        H  0.25574342  0.64106077  0.28391076     0.41000
H748        H  0.24060863  0.63974339  0.21048183     0.38900
H749        H  0.24379964  0.69072626  0.11604850     0.42000
H750        H  0.27054785  0.78393929  0.11912864     0.36800
H751        H  0.24597695  0.86223834  0.21510887     0.42900
H752        H  0.25755240  0.86352234  0.28639061     0.39400
H753        H  0.24749581  0.64077974  0.16717742     0.44300
H754        H  0.25444546  0.81394984  0.11479274     0.43000
H755        H  0.25587619  0.86310207  0.33108672     0.43100
H756        H  0.24446362  0.68875169  0.38611222     0.43500
C757        C  0.10417745  0.62822934  0.08690792    -0.11500
C758        C  0.12103428  0.61376029  0.11058464     0.15100
C759        C  0.12014840  0.58060521  0.11627500     0.02000
C760        C  0.10211456  0.56278060  0.09875649    -0.15800
C761        C  0.08511285  0.57739663  0.07536097    -0.10600
C762        C  0.08651090  0.61038026  0.06884490     0.08700
C763        C  0.13908042  0.63411797  0.12913950     0.09700
S764        S  0.14127862  0.55981470  0.14577071    -0.25000
H765        H  0.10118647  0.53743816  0.10370908     0.20000
S766        S  0.06673743  0.63078890  0.03671968    -0.30700
H767        H  0.10499353  0.65359738  0.08211363     0.10300
C768        C  0.15871585  0.64594733  0.10864582     0.03500
C769        C  0.17516860  0.66578986  0.12706754    -0.13000
C770        C  0.17236088  0.67410872  0.16565016    -0.08600
C771        C  0.15267724  0.66186759  0.18608253     0.07000
C772        C  0.13631365  0.64206308  0.16766427    -0.13700
S773        S  0.16320853  0.63479705  0.05941929    -0.30600
H774        H  0.19035380  0.67477426  0.11142804     0.11200
S775        S  0.14863880  0.66840672  0.23637485    -0.27700
H776        H  0.12134341  0.63263015  0.18351398     0.08400
H777        H  0.06607937  0.60624323  0.00957658     0.26900
H778        H  0.18520008  0.65023351  0.05460182     0.21700
H779        H  0.14310613  0.70065701  0.23141206     0.27000
H780        H  0.16051923  0.58047513  0.13943746     0.15800
C781        C  0.12920864  0.66923188  0.35496115    -0.11500
C782        C  0.13451171  0.63763289  0.36397187     0.15100
C783        C  0.15771726  0.62612109  0.35813534     0.02000
C784        C  0.17517453  0.64641317  0.34386402    -0.15800
C785        C  0.17004043  0.67806106  0.33440787    -0.10600
C786        C  0.14675737  0.68970162  0.34072061     0.08700
C787        C  0.11586084  0.61735341  0.38078051     0.09700
S788        S  0.16617707  0.58570644  0.36810422    -0.25000
H789        H  0.19281589  0.63696419  0.33894918     0.20000
S790        S  0.13856703  0.73053246  0.33310065    -0.30700
H791        H  0.11143575  0.67818660  0.36000474     0.10300
C792        C  0.11578207  0.61026769  0.42004166     0.03500
C793        C  0.09867453  0.58933814  0.43449375    -0.13000
C794        C  0.08154367  0.57547670  0.41054068    -0.08600
C795        C  0.08187834  0.58233656  0.37107239     0.07000
C796        C  0.09884090  0.60352112  0.35670749    -0.13700
S797        S  0.13715950  0.62836204  0.45186543    -0.30600
H798        H  0.09822040  0.58435971  0.46479783     0.11200
S799        S  0.06196085  0.56381223  0.33743853    -0.27700
H800        H  0.09923641  0.60857495  0.32639576     0.08400
H801        H  0.16028519  0.74302016  0.34634451     0.26900
H802        H  0.12901033  0.61392230  0.48562193     0.21700
H803        H  0.06006719  0.53495854  0.35733605     0.27000
H804        H  0.14407508  0.57188442  0.35936111     0.15800
C805        C  0.15671041  0.85305192  0.10609884    -0.11500
C806        C  0.13861425  0.86658076  0.12818832     0.15100
C807        C  0.13751283  0.86001048  0.16762888     0.02000
C808        C  0.15466682  0.84035526  0.18418794    -0.15800
C809        C  0.17305644  0.82715119  0.16231785    -0.10600
C810        C  0.17402318  0.83350454  0.12272353     0.08700
C811        C  0.12083906  0.88690405  0.10914810     0.09700
S812        S  0.11524209  0.87678590  0.19867517    -0.25000
H813        H  0.15396822  0.83590975  0.21461087     0.20000
S814        S  0.19664369  0.81587984  0.09289875    -0.30700
H815        H  0.15721066  0.85793942  0.07578329     0.10300
C816        C  0.12224101  0.92025435  0.11052868     0.03500
C817        C  0.10414816  0.93842557  0.09365211    -0.13000
C818        C  0.08471158  0.92375038  0.07559755    -0.08600
C819        C  0.08396940  0.89031363  0.07307769     0.07000
C820        C  0.10188280  0.87230450  0.09007997    -0.13700
S821        S  0.14694816  0.93949345  0.13403433    -0.30600
H822        H  0.10484051  0.96405766  0.09517142     0.11200
S823        S  0.06108357  0.86927127  0.04744767    -0.27700
H824        H  0.10103388  0.84665847  0.08853555     0.08400
H825        H  0.18906334  0.82915906  0.05816674     0.26900
H826        H  0.14002884  0.97079321  0.12585846     0.21700
H827        H  0.06006118  0.89114702  0.01723416     0.27000
H828        H  0.09739587  0.88124102  0.17120109     0.15800
C829        C  0.34940657  0.64552737  0.11560634    -0.11500
C830        C  0.37052202  0.64000575  0.13560798     0.15100
C831        C  0.37388344  0.65414858  0.17169276     0.02000
C832        C  0.35567883  0.67256791  0.18754822    -0.15800
C833        C  0.33409677  0.67742922  0.16805280    -0.10600
C834        C  0.33143699  0.66446605  0.13094456     0.08700
C835        C  0.38887246  0.62009557  0.11734145     0.09700
S836        S  0.40099499  0.64978471  0.19866557    -0.25000
H837        H  0.35824459  0.68261010  0.21570682     0.20000
S838        S  0.30629542  0.67246008  0.10057293    -0.30700
H839        H  0.34711884  0.63544296  0.08738631     0.10300
C840        C  0.38656671  0.58685086  0.11605010     0.03500
C841        C  0.40413964  0.56879214  0.09791003    -0.13000
C842        C  0.42403833  0.58333915  0.08113368    -0.08600
C843        C  0.42596174  0.61678759  0.08157615     0.05200
C844        C  0.40841680  0.63477591  0.09993253    -0.13700
S845        S  0.36157546  0.56740649  0.13849791    -0.30600
H846        H  0.40265448  0.54318921  0.09745564     0.11200
S847        S  0.45001601  0.63694779  0.05741358    -0.27700
H848        H  0.40979991  0.66038444  0.10065226     0.08400
H849        H  0.30465275  0.70456134  0.11120683     0.26900
H850        H  0.36699213  0.53650399  0.12619301     0.21700
H851        H  0.43976396  0.66733405  0.05798829     0.27000
H852        H  0.40686848  0.61945708  0.18510554     0.15800
C853        C  0.38091081  0.89753004  0.42647376    -0.11500
C854        C  0.38504699  0.88584333  0.38963643     0.15100
C855        C  0.40606157  0.89440811  0.37026769     0.02000
C856        C  0.42271655  0.91378561  0.38849692    -0.15800
C857        C  0.41876754  0.92561884  0.42547630    -0.10600
C858        C  0.39739995  0.91745991  0.44448116     0.08700
C859        C  0.36665269  0.86592479  0.37150807     0.09700
S860        S  0.41289639  0.88116129  0.32252888    -0.25000
H861        H  0.43892159  0.91988155  0.37342245     0.20000
S862        S  0.39079519  0.92991948  0.49237213    -0.30700
H863        H  0.36468231  0.89107318  0.44126885     0.10300
C864        C  0.36883811  0.83272657  0.36894180     0.03500
C865        C  0.35105417  0.81517749  0.35026189    -0.13000
C866        C  0.33122534  0.83028536  0.33402022    -0.08600
C867        C  0.32955076  0.86373803  0.33599944     0.07000
C868        C  0.34698698  0.88101346  0.35529978    -0.13700
S869        S  0.39410963  0.81281500  0.38973065    -0.30600
H870        H  0.35241486  0.78960721  0.34868149     0.11200
S871        S  0.30650814  0.88618286  0.31271089    -0.27700
H872        H  0.34562571  0.90662498  0.35668785     0.08400
H873        H  0.38891671  0.96203671  0.48198731     0.26900
H874        H  0.38720381  0.78181857  0.37975685     0.21700
H875        H  0.30485831  0.86622197  0.28066486     0.27000
H876        H  0.38935517  0.87862804  0.30946725     0.15800
C877        C  0.38052864  0.58340583  0.39383408    -0.11500
C878        C  0.38382723  0.61630118  0.39110464     0.15100
C879        C  0.40534399  0.62990589  0.40391366     0.02000
C880        C  0.42326716  0.61037522  0.41830495    -0.15800
C881        C  0.42015530  0.57740143  0.42081753    -0.10600
C882        C  0.39856066  0.56377519  0.40802272     0.08700
C883        C  0.36538955  0.63564711  0.37210941     0.09700
S884        S  0.41110007  0.67197040  0.40206588    -0.25000
H885        H  0.43966258  0.62111206  0.42828886     0.20000
S886        S  0.39359181  0.52151946  0.40654282    -0.30700
H887        H  0.36417257  0.57285830  0.38342173     0.10300
C888        C  0.36843224  0.64639041  0.33440491     0.03500
C889        C  0.35115630  0.66595776  0.31779694    -0.13000
C890        C  0.33075591  0.67498822  0.33816440    -0.08600
C891        C  0.32799755  0.66445854  0.37631784     0.07000
C892        C  0.34511506  0.64455523  0.39258545    -0.13700
S893        S  0.39392599  0.63424323  0.30689146    -0.30600
H894        H  0.35322755  0.67345185  0.28844385     0.11200
S895        S  0.30377757  0.67685583  0.40647379    -0.27700
H896        H  0.34300552  0.63672810  0.42183744     0.08400
H897        H  0.41716605  0.51372075  0.39693900     0.26900
H898        H  0.39208424  0.65868955  0.27985029     0.21700
H899        H  0.30318484  0.70808821  0.39235832     0.27000
H900        H  0.38746198  0.68139850  0.40828195     0.15800
C901        C  0.11923954  0.91478768  0.38735356    -0.11500
C902        C  0.11471656  0.88227071  0.38305147     0.15100
C903        C  0.09247226  0.86985592  0.39429485     0.02000
C904        C  0.07503090  0.89035369  0.40835666    -0.15800
C905        C  0.07947260  0.92296580  0.41287909    -0.10600
C906        C  0.10187272  0.93527654  0.40178409     0.08700
C907        C  0.13335972  0.86216399  0.36583965     0.09700
S908        S  0.08540907  0.82806316  0.39255185    -0.25000
H909        H  0.05812755  0.88047175  0.41733137     0.20000
S910        S  0.10906281  0.97694886  0.40359576    -0.30700
H911        H  0.13627309  0.92438123  0.37853765     0.10300
C912        C  0.13087109  0.84955533  0.32885200     0.03500
C913        C  0.14913893  0.83094942  0.31356571    -0.13000
C914        C  0.16990942  0.82456553  0.33451934    -0.08600
C915        C  0.17197957  0.83644448  0.37220007     0.07000
C916        C  0.15378690  0.85542331  0.38716844    -0.13700
S917        S  0.10472967  0.85786521  0.30066996    -0.30600
H918        H  0.14748479  0.82202096  0.28473475     0.11200
S919        S  0.19695173  0.82634303  0.40236450    -0.27700
H920        H  0.15522645  0.86477879  0.41584438     0.08400
H921        H  0.08627140  0.98715219  0.39253872     0.26900
H922        H  0.10978799  0.83644407  0.27102294     0.21700
H923        H  0.19039674  0.84480153  0.43406050     0.27000
H924        H  0.10881806  0.81662384  0.39479093     0.15800
C925        C  0.40668342  0.87234222  0.10151569    -0.11500
C926        C  0.38668510  0.88702110  0.11733715     0.15100
C927        C  0.38455594  0.92033087  0.11551084     0.02000
C928        C  0.40240567  0.93816655  0.09773377    -0.15800
C929        C  0.42266971  0.92357945  0.08229893    -0.10600
C930        C  0.42447084  0.89010161  0.08355951     0.08700
C931        C  0.36825778  0.86682535  0.13507389     0.09700
S932        S  0.35964064  0.94146413  0.13549682    -0.25000
H933        H  0.40073738  0.96374951  0.09679674     0.20000
S934        S  0.44816148  0.86834257  0.06098313    -0.30700
H935        H  0.40815303  0.84672953  0.10239363     0.10300
C936        C  0.34649794  0.86056852  0.11667393     0.03500
C937        C  0.32936439  0.84185698  0.13509418    -0.13000
C938        C  0.33347127  0.82925187  0.17171202    -0.08600
C939        C  0.35544986  0.83579118  0.18996184     0.07000
C940        C  0.37267795  0.85393016  0.17117062    -0.13700
S941        S  0.34072346  0.87605004  0.06951690    -0.30600
H942        H  0.31270952  0.83688909  0.12075663     0.11200
S943        S  0.36200089  0.82401243  0.23816939    -0.27700
H944        H  0.38937977  0.85905100  0.18537738     0.08400
H945        H  0.45015593  0.88874041  0.02938247     0.26900
H946        H  0.31831678  0.86173801  0.06451158     0.21700
H947        H  0.33989686  0.83452116  0.25182851     0.27000
H948        H  0.35519770  0.92019353  0.16552831     0.15800
O949        O  0.45948935  0.93703042  0.93351402    -0.75400
O950        O  0.43252816  0.96705897  0.96577090    -0.54300
C951        C  0.43810165  0.94439372  0.94298429     0.78300
O952        O  0.04266781  0.93560942  0.56943480    -0.60000
O953        O  0.07039885  0.96402397  0.53636271    -0.53000
C954        C  0.06422095  0.94157703  0.55910193     0.70400
O955        O  0.46278552  0.93811814  0.57285923    -0.74500
O956        O  0.43465166  0.96920010  0.54471792    -0.55100
C957        C  0.44108628  0.94562132  0.56546667     0.76400
O958        O  0.04019543  0.93681288  0.92446807    -0.59700
O959        O  0.06879704  0.96497322  0.95593852    -0.52800
C960        C  0.06202216  0.94355396  0.93217775     0.73000
Zr961      Zr  0.49991977  0.95497332  0.94498040     2.54700
O962        O  0.50043423  0.89732608  0.94753679    -0.80300
O963        O  0.99837955  0.95854805  0.87464468    -0.93700
Zr964      Zr  0.50279167  0.95798013  0.55996342     2.64700
O965        O  0.50143131  0.90137723  0.57358963    -0.98600
O966        O  0.00382214  0.97089498  0.62682877    -0.80700
O967        O  0.47880480  0.95601691  0.00331353    -0.84000
O968        O  0.02466121  0.95368587  0.99942903    -2.18800
O969        O  0.04166218  0.56193728  0.92025965    -0.67400
O970        O  0.06941635  0.53424068  0.95405923    -0.52000
C971        C  0.06325905  0.55482701  0.92892209     0.71300
O972        O  0.46399538  0.57436871  0.56587278    -0.60300
O973        O  0.43538889  0.54107444  0.54263930    -0.52300
C974        C  0.44219626  0.56611337  0.56057170     0.73100
O975        O  0.04507566  0.56868402  0.56658307    -0.71700
O976        O  0.07173847  0.53651890  0.53634705    -0.50400
C977        C  0.06638095  0.56005761  0.55798551     0.74500
O978        O  0.46071415  0.56619563  0.92907363    -0.67100
O979        O  0.43323580  0.53759356  0.96247034    -0.54300
C980        C  0.43918160  0.55931492  0.93854984     0.72900
Zr981      Zr  0.00152973  0.54723238  0.94032445     2.77500
O982        O  0.00287912  0.60484361  0.93585827    -0.97800
O983        O  0.99873924  0.54184203  0.87129908    -0.78600
Zr984      Zr  0.00432564  0.55080232  0.55463543     2.70100
O985        O  0.00568539  0.60835478  0.55870987    -0.79900
O986        O  0.00499335  0.54582012  0.62381205    -0.99000
Zr987      Zr  0.45668064  0.50294895  0.50385119     2.21500
Zr988      Zr  0.04774756  0.00108268  0.99753164     2.11100
O989        O  0.02554294  0.54926450  0.49624891    -2.47700
O990        O  0.47962900  0.55016060  0.49889072    -0.79700
O991        O  0.02442365  0.00072236  0.94074858    -0.71900
O992        O  0.47990254  0.50586278  0.56084910    -2.32800
O993        O  0.47698707  0.50135428  0.94348578    -2.29000
O994        O  0.02704389  0.00319798  0.55691852    -0.73600
H995        H  0.03353572  0.93468678  0.50042944     0.78400
H996        H  0.46988108  0.50706201  0.58316213     0.79500
H997        H  0.03581998  0.56671889  0.99476803     0.81700
H998        H  0.46607046  0.50130783  0.92221080     0.79300
H999        H  0.48956742  0.95596242  0.63838449     0.42300
H1000       H  0.02136578  0.53880587  0.62984594     0.41300
H1001       H  0.50539898  0.61704681  0.53161023     0.41000
H1002       H  0.01740098  0.61117081  0.94994053     0.38900
H1003       H  0.00866628  0.52315506  0.86525404     0.42000
H1004       H  0.49818848  0.93301199  0.86817300     0.36800
H1005       H  0.49615798  0.89223000  0.97424682     0.42900
H1006       H  0.00627813  0.88980978  0.55870836     0.39400
H1007       H  0.00661745  0.60919953  0.90875250     0.44300
H1008       H  0.51190365  0.96534209  0.86690725     0.43000
H1009       H  0.51112963  0.89835951  0.59688086     0.43100
H1010       H  0.00426851  0.56792469  0.63322312     0.43500
O1011       O  0.29275010  0.81889991  0.68136745    -0.75400
O1012       O  0.32041309  0.78916540  0.71254387    -0.54300
C1013       C  0.31438502  0.81175412  0.68986372     0.78300
O1014       O  0.21121243  0.81298003  0.82770386    -0.60000
O1015       O  0.18394130  0.78597492  0.79201163    -0.53000
C1016       C  0.18973035  0.80616816  0.81802670     0.70400
O1017       O  0.29111999  0.81859635  0.82262264    -0.74500
O1018       O  0.31954678  0.78847424  0.79366702    -0.55100
C1019       C  0.31288066  0.81144719  0.81519719     0.76400
O1020       O  0.21267124  0.81497278  0.67517705    -0.59700
O1021       O  0.18440555  0.78676073  0.70727082    -0.52800
C1022       C  0.19090363  0.80771014  0.68259791     0.73000
Zr1023     Zr  0.25260749  0.80008706  0.69553831     2.54700
O1024       O  0.25023531  0.85761591  0.70025113    -0.80300
O1025       O  0.25458382  0.79984652  0.62615057    -0.93700
Zr1026     Zr  0.25133715  0.79863874  0.80843839     2.64700
O1027       O  0.24666512  0.85598531  0.80952694    -0.98600
O1028       O  0.25379700  0.79481825  0.87761628    -0.80700
O1029       O  0.27505724  0.80009518  0.75265282    -0.84000
O1030       O  0.22891130  0.79958272  0.75125771    -2.18800
O1031       O  0.21389693  0.68910549  0.67358807    -0.67400
O1032       O  0.18547842  0.71572482  0.70708996    -0.52000
C1033       C  0.19211801  0.69488180  0.68250972     0.71300
O1034       O  0.29129488  0.68786677  0.82566107    -0.60300
O1035       O  0.31942035  0.71722383  0.79470198    -0.52300
C1036       C  0.31297047  0.69559641  0.81850749     0.73100
O1037       O  0.21178315  0.68765744  0.82352562    -0.71700
O1038       O  0.18415342  0.71506849  0.78939740    -0.50400
C1039       C  0.19018680  0.69385644  0.81392850     0.74500
O1040       O  0.29389678  0.69096954  0.67584299    -0.67100
O1041       O  0.32107480  0.71882288  0.71077064    -0.54300
C1042       C  0.31539585  0.69845587  0.68497837     0.72900
Zr1043     Zr  0.25344172  0.70609773  0.69379393     2.77500
O1044       O  0.25421896  0.64838652  0.69521780    -0.97800
O1045       O  0.25433330  0.70842801  0.62446701    -0.78600
Zr1046     Zr  0.25176758  0.70526916  0.80726255     2.70100
O1047       O  0.25170390  0.64760698  0.80886765    -0.79900
O1048       O  0.25121015  0.70998337  0.87648904    -0.99000
Zr1049     Zr  0.29799217  0.75274186  0.75243340     2.21500
Zr1050     Zr  0.20640734  0.75171014  0.74957735     2.11100
O1051       O  0.22973766  0.70462187  0.74968665    -2.47700
O1052       O  0.27559575  0.70488898  0.75131926    -0.79700
O1053       O  0.22980733  0.75271392  0.69291650    -0.71900
O1054       O  0.27490310  0.75220058  0.80951076    -2.32800
O1055       O  0.27611087  0.75348231  0.69425120    -2.29000
O1056       O  0.22809935  0.75164296  0.80798227    -0.73600
H1057       H  0.21860324  0.81786991  0.75131728     0.78400
H1058       H  0.28495620  0.75223639  0.83187430     0.79500
H1059       H  0.21978544  0.68597104  0.74913641     0.81700
H1060       H  0.28664964  0.75402406  0.67250333     0.79300
H1061       H  0.25704906  0.81675850  0.88625065     0.42300
H1062       H  0.23724645  0.72347994  0.88202499     0.41300
H1063       H  0.25599523  0.64123350  0.78258107     0.41000
H1064       H  0.24127356  0.64229145  0.71290947     0.38900
H1065       H  0.25005730  0.73059426  0.61829741     0.42000
H1066       H  0.26992378  0.78955612  0.62002244     0.36800
H1067       H  0.26510228  0.86407887  0.71328600     0.42900
H1068       H  0.25600285  0.86360508  0.78741295     0.39400
H1069       H  0.24841142  0.64182725  0.66973709     0.44300
H1070       H  0.25696306  0.82236502  0.61914619     0.43000
H1071       H  0.25571304  0.86314579  0.83218275     0.43100
H1072       H  0.24655521  0.68863281  0.88558349     0.43500
C1073       C  0.10574534  0.62963121  0.58457087    -0.11500
C1074       C  0.12300826  0.61482848  0.60714545     0.15100
C1075       C  0.12191140  0.58169543  0.61288724     0.02000
C1076       C  0.10354013  0.56415217  0.59589395    -0.15800
C1077       C  0.08610646  0.57908617  0.57362217    -0.10600
C1078       C  0.08745615  0.61215167  0.56760439     0.08700
C1079       C  0.14100876  0.63505456  0.62596077     0.09700
S1080       S  0.14287217  0.56070697  0.64250211    -0.25000
H1081       H  0.10254728  0.53879243  0.60069844     0.20000
S1082       S  0.06664896  0.63329842  0.53797943    -0.30700
H1083       H  0.10652295  0.65505857  0.58022281     0.10300
C1084       C  0.16049843  0.64762032  0.60572530     0.03500
C1085       C  0.17671013  0.66753354  0.62464286    -0.13000
C1086       C  0.17360734  0.67553859  0.66329590    -0.08600
C1087       C  0.15385872  0.66288151  0.68322551     0.07000
C1088       C  0.13793976  0.64272777  0.66446228    -0.13700
S1089       S  0.16498664  0.63759325  0.55614295    -0.30600
H1090       H  0.19190254  0.67687515  0.60932439     0.11200
S1091       S  0.14890267  0.66958669  0.73323968    -0.27700
H1092       H  0.12294740  0.63297601  0.67998526     0.08400
H1093       H  0.06459639  0.60921636  0.51043946     0.26900
H1094       H  0.18539541  0.65636235  0.55052583     0.21700
H1095       H  0.14343974  0.70183224  0.72796648     0.27000
H1096       H  0.16224946  0.58109529  0.63598437     0.15800
C1097       C  0.13045771  0.66298419  0.85037313    -0.11500
C1098       C  0.13662191  0.63211096  0.86125366     0.15100
C1099       C  0.16023738  0.62173509  0.85654688     0.02000
C1100       C  0.17725757  0.64264973  0.84199607    -0.15800
C1101       C  0.17131336  0.67383935  0.83133356    -0.10600
C1102       C  0.14752353  0.68409652  0.83613716     0.08700
C1103       C  0.11821787  0.61172759  0.87873318     0.09700
S1104       S  0.16968454  0.58203360  0.86821825    -0.25000
H1105       H  0.19525097  0.63409902  0.83812942     0.20000
S1106       S  0.13795048  0.72412161  0.82696026    -0.30700
H1107       H  0.11233917  0.67105113  0.85431906     0.10300
C1108       C  0.11877730  0.60406565  0.91786683     0.03500
C1109       C  0.10109315  0.58433296  0.93302476    -0.13000
C1110       C  0.08247428  0.57281367  0.91012183    -0.08600
C1111       C  0.08189971  0.58078251  0.87095271     0.07000
C1112       C  0.09971728  0.60020685  0.85576087    -0.13700
S1113       S  0.14120635  0.62078595  0.94893900    -0.30600
H1114       H  0.10123730  0.57881339  0.96320136     0.11200
S1115       S  0.05925944  0.56655189  0.83875219    -0.27700
H1116       H  0.09930293  0.60620008  0.82569973     0.08400
H1117       H  0.15829631  0.73820775  0.84318026     0.26900
H1118       H  0.13342561  0.60620172  0.98282138     0.21700
H1119       H  0.05688974  0.53665668  0.85614948     0.27000
H1120       H  0.14803668  0.56718741  0.85888433     0.15800
C1121       C  0.15748838  0.85511781  0.60706109    -0.11500
C1122       C  0.13715799  0.86411449  0.62733389     0.15100
C1123       C  0.13394628  0.85329904  0.66504501     0.02000
C1124       C  0.15129333  0.83405341  0.68188581    -0.15800
C1125       C  0.17209916  0.82564954  0.66209465    -0.10600
C1126       C  0.17497303  0.83597105  0.62387914     0.08700
C1127       C  0.11924173  0.88405023  0.60801226     0.09700
S1128       S  0.10808188  0.86315631  0.69305300    -0.25000
H1129       H  0.14882140  0.82635950  0.71110631     0.20000
S1130       S  0.20009442  0.82359142  0.59539358    -0.30700
H1131       H  0.15947826  0.86299911  0.57783666     0.10300
C1132       C  0.12209762  0.91716549  0.60518139     0.03500
C1133       C  0.10407480  0.93537725  0.58837478    -0.13000
C1134       C  0.08327219  0.92107727  0.57428871    -0.08600
C1135       C  0.08105916  0.88765978  0.57556820     0.07000
C1136       C  0.09884285  0.86961131  0.59298474    -0.13700
S1137       S  0.14828335  0.93628813  0.62428604    -0.30600
H1138       H  0.10591002  0.96091627  0.58699691     0.11200
S1139       S  0.05669963  0.86651156  0.55378323    -0.27700
H1140       H  0.09691898  0.84406577  0.59451689     0.08400
H1141       H  0.19507280  0.84224337  0.56314249     0.26900
H1142       H  0.14124647  0.96765235  0.61669902     0.21700
H1143       H  0.05474149  0.88701346  0.52231338     0.27000
H1144       H  0.10309477  0.89240240  0.67569449     0.15800
C1145       C  0.35190527  0.65660774  0.60864374    -0.11500
C1146       C  0.37152571  0.64645774  0.62998141     0.15100
C1147       C  0.37349681  0.65548767  0.66863121     0.02000
C1148       C  0.35513559  0.67279845  0.68568507    -0.15800
C1149       C  0.33501382  0.68213119  0.66473842    -0.10600
C1150       C  0.33392576  0.67484267  0.62532251     0.08700
C1151       C  0.38917698  0.62552150  0.61152549     0.09700
S1152       S  0.39870422  0.64501749  0.69783591    -0.25000
H1153       H  0.35642480  0.67861560  0.71572517     0.20000
S1154       S  0.31077347  0.68927965  0.59431366    -0.30700
H1155       H  0.35065974  0.65037088  0.57870427     0.10300
C1156       C  0.38932680  0.59263224  0.61857603     0.03500
C1157       C  0.40654263  0.57359147  0.60099173    -0.13000
C1158       C  0.42370523  0.58687680  0.57674211    -0.08600
C1159       C  0.42324811  0.61974266  0.56904789     0.05200
C1160       C  0.40589474  0.63873351  0.58645053    -0.13700
S1161       S  0.36749956  0.57494101  0.64984993    -0.30600
H1162       H  0.40695531  0.54835841  0.60664781     0.11200
S1163       S  0.44404274  0.63731049  0.53583931    -0.27700
H1164       H  0.40535622  0.66395927  0.58080201     0.08400
H1165       H  0.30833980  0.71870555  0.61283839     0.26900
H1166       H  0.37447266  0.54326700  0.64430023     0.21700
H1167       H  0.43647819  0.66885740  0.54031814     0.27000
H1168       H  0.41545073  0.64365068  0.66815384     0.15800
C1169       C  0.38131891  0.89708859  0.92565876    -0.11500
C1170       C  0.38513963  0.88681697  0.88815639     0.15100
C1171       C  0.40590073  0.89620630  0.86863776     0.02000
C1172       C  0.42261429  0.91506821  0.88737544    -0.15800
C1173       C  0.41893757  0.92558348  0.92497223    -0.10600
C1174       C  0.39784957  0.91655655  0.94417691     0.08700
C1175       C  0.36687126  0.86694442  0.86990976     0.09700
S1176       S  0.41241037  0.88476827  0.82009955    -0.25000
H1177       H  0.43860418  0.92190852  0.87216490     0.20000
S1178       S  0.39157349  0.92751718  0.99271770    -0.30700
H1179       H  0.36531018  0.88987194  0.94056678     0.10300
C1180       C  0.36965485  0.83394026  0.86608697     0.03500
C1181       C  0.35189854  0.81627567  0.84765816    -0.13000
C1182       C  0.33158956  0.83115237  0.83274574    -0.08600
C1183       C  0.32945602  0.86447912  0.83542493     0.07000
C1184       C  0.34676859  0.88184509  0.85485791    -0.13700
S1185       S  0.39551338  0.81436119  0.88540624    -0.30600
H1186       H  0.35360019  0.79077109  0.84545789     0.11200
S1187       S  0.30616754  0.88656798  0.81224010    -0.27700
H1188       H  0.34507729  0.90738494  0.85695994     0.08400
H1189       H  0.38903434  0.95984120  0.98369967     0.26900
H1190       H  0.39078203  0.78434361  0.86958459     0.21700
H1191       H  0.30506454  0.86699876  0.77974811     0.27000
H1192       H  0.38884656  0.88063013  0.80780040     0.15800
C1193       C  0.38120668  0.58605242  0.89246647    -0.11500
C1194       C  0.38499467  0.61889875  0.89050457     0.15100
C1195       C  0.40630863  0.63188188  0.90492371     0.02000
C1196       C  0.42370337  0.61171602  0.91965836    -0.15800
C1197       C  0.42014768  0.57877007  0.92139614    -0.10600
C1198       C  0.39857393  0.56580501  0.90750180     0.08700
C1199       C  0.36683970  0.63891056  0.87195530     0.09700
S1200       S  0.41242875  0.67391193  0.90530657    -0.25000
H1201       H  0.44002973  0.62195167  0.93064257     0.20000
S1202       S  0.39255177  0.52376748  0.90631358    -0.30700
H1203       H  0.36485975  0.57606647  0.88124204     0.10300
C1204       C  0.37002741  0.65054850  0.83464194     0.03500
C1205       C  0.35240985  0.66957154  0.81816379    -0.13000
C1206       C  0.33180974  0.67771358  0.83851888    -0.08600
C1207       C  0.32925947  0.66715397  0.87668974     0.07000
C1208       C  0.34650224  0.64729827  0.89258833    -0.13700
S1209       S  0.39625580  0.64063450  0.80757547    -0.30600
H1210       H  0.35444962  0.67749692  0.78896958     0.11200
S1211       S  0.30519602  0.67935596  0.90732554    -0.27700
H1212       H  0.34442411  0.63904030  0.92167932     0.08400
H1213       H  0.41614326  0.51460037  0.89898349     0.26900
H1214       H  0.39342565  0.66448468  0.77991075     0.21700
H1215       H  0.30348134  0.71013605  0.89209831     0.27000
H1216       H  0.38869609  0.68396538  0.90818640     0.15800
C1217       C  0.12009644  0.91622819  0.88734905    -0.11500
C1218       C  0.11574046  0.88360985  0.88370421     0.15100
C1219       C  0.09352711  0.87113105  0.89488586     0.02000
C1220       C  0.07617569  0.89144921  0.90942358    -0.15800
C1221       C  0.08050055  0.92410147  0.91354304    -0.10600
C1222       C  0.10263317  0.93667521  0.90159657     0.08700
C1223       C  0.13437752  0.86331863  0.86693162     0.09700
S1224       S  0.08620077  0.82956289  0.89118859    -0.25000
H1225       H  0.05934505  0.88146733  0.91861170     0.20000
S1226       S  0.10926371  0.97856215  0.90195107    -0.30700
H1227       H  0.13702620  0.92589587  0.87815758     0.10300
C1228       C  0.13268948  0.85231693  0.82914507     0.03500
C1229       C  0.15063580  0.83292555  0.81437586    -0.13000
C1230       C  0.17033882  0.82419450  0.83666445    -0.08600
C1231       C  0.17166037  0.83463289  0.87506017     0.07000
C1232       C  0.15371114  0.85428892  0.88960946    -0.13700
S1233       S  0.10804378  0.86373138  0.79924899    -0.30600
H1234       H  0.14964072  0.82534332  0.78490401     0.11200
S1235       S  0.19542834  0.82207259  0.90633982    -0.27700
H1236       H  0.15450440  0.86246693  0.91887014     0.08400
H1237       H  0.08603600  0.98825720  0.89269208     0.26900
H1238       H  0.11139727  0.83974168  0.77192686     0.21700
H1239       H  0.18816701  0.83907876  0.93882615     0.27000
H1240       H  0.10933894  0.81813765  0.89733560     0.15800
C1241       C  0.40609101  0.87386375  0.59918659    -0.11500
C1242       C  0.38626251  0.88835579  0.61580554     0.15100
C1243       C  0.38411625  0.92171760  0.61473514     0.02000
C1244       C  0.40202989  0.93981495  0.59754638    -0.15800
C1245       C  0.42218720  0.92537980  0.58165253    -0.10600
C1246       C  0.42380926  0.89190540  0.58152197     0.08700
C1247       C  0.36809116  0.86794397  0.63376800     0.09700
S1248       S  0.35903399  0.94264195  0.63457813    -0.25000
H1249       H  0.40044443  0.96542315  0.59722725     0.20000
S1250       S  0.44723067  0.87069090  0.55746974    -0.30700
H1251       H  0.40749232  0.84823334  0.59928160     0.10300
C1252       C  0.34620152  0.86169450  0.61583256     0.03500
C1253       C  0.32911503  0.84326093  0.63477575    -0.13000
C1254       C  0.33344244  0.83084006  0.67142406    -0.08600
C1255       C  0.35567523  0.83712647  0.68905242     0.07000
C1256       C  0.37277312  0.85517504  0.66983507    -0.13700
S1257       S  0.34025235  0.87673709  0.56853837    -0.30600
H1258       H  0.31237315  0.83822212  0.62073913     0.11200
S1259       S  0.36288296  0.82482878  0.73682408    -0.27700
H1260       H  0.38962344  0.86021779  0.68363096     0.08400
H1261       H  0.44897426  0.89198344  0.52667599     0.26900
H1262       H  0.31615097  0.86780799  0.56717703     0.21700
H1263       H  0.34096522  0.83513092  0.75140482     0.27000
H1264       H  0.35343745  0.92043113  0.66306214     0.15800
O1265       O  0.96036438  0.43548198  0.43376990    -0.75400
O1266       O  0.93339921  0.46579833  0.46565127    -0.54300
C1267       C  0.93898591  0.44293492  0.44312541     0.78300
O1268       O  0.54290444  0.43468325  0.06868139    -0.60000
O1269       O  0.57035373  0.46435015  0.03645863    -0.53000
C1270       C  0.56440840  0.44161730  0.05897807     0.70400
O1271       O  0.96213085  0.43681980  0.07068336    -0.74500
O1272       O  0.93409600  0.46873436  0.04354107    -0.55100
C1273       C  0.94048149  0.44499256  0.06408063     0.76400
O1274       O  0.54008822  0.43328075  0.43124345    -0.59700
O1275       O  0.56855754  0.46412097  0.45921418    -0.52800
C1276       C  0.56190015  0.44090367  0.43782557     0.73000
Zr1277     Zr  0.00072600  0.45356689  0.44573246     2.54700
O1278       O  0.99968588  0.39589530  0.44446796    -0.80300
O1279       O  0.50110571  0.45162420  0.37913414    -0.93700
Zr1280     Zr  0.00219269  0.45629851  0.05746904     2.64700
O1281       O  0.99980751  0.39936129  0.06861193    -0.98600
O1282       O  0.50411702  0.46492568  0.12605885    -0.80700
O1283       O  0.97948134  0.45526614  0.50407420    -0.84000
O1284       O  0.52465540  0.45510353  0.50395724    -2.18800
O1285       O  0.54182793  0.06179869  0.41964874    -0.67400
O1286       O  0.56952524  0.03484303  0.45448664    -0.52000
C1287       C  0.56341985  0.05500800  0.42880162     0.71300
O1288       O  0.96419839  0.07083289  0.06844668    -0.60300
O1289       O  0.93546468  0.03859803  0.04343895    -0.52300
C1290       C  0.94236026  0.06282769  0.06277261     0.73100
O1291       O  0.54436299  0.06906186  0.06707047    -0.71700
O1292       O  0.57098354  0.03736194  0.03607315    -0.50400
C1293       C  0.56564123  0.06079681  0.05783787     0.74500
O1294       O  0.96198426  0.06692870  0.42798417    -0.67100
O1295       O  0.93424735  0.03938007  0.46206671    -0.54300
C1296       C  0.94040393  0.06083194  0.43795332     0.72900
Zr1297     Zr  0.50183256  0.04715289  0.44082537     2.77500
O1298       O  0.50294798  0.10478293  0.43637134    -0.97800
O1299       O  0.49855436  0.04030414  0.37206925    -0.78600
Zr1300     Zr  0.50368535  0.05061798  0.05591534     2.70100
O1301       O  0.50514311  0.10807139  0.06177016    -0.79900
O1302       O  0.50451553  0.04571643  0.12511027    -0.99000
Zr1303     Zr  0.95665024  0.00209799  0.00249212     2.21500
Zr1304     Zr  0.54766885  0.50229755  0.49888759     2.11100
O1305       O  0.52485292  0.04975123  0.99750091    -2.47700
O1306       O  0.97978243  0.04929757  0.00011437    -0.79700
O1307       O  0.52429964  0.49953029  0.44238640    -0.71900
O1308       O  0.98014195  0.00258930  0.05923915    -2.32800
O1309       O  0.97762246  0.00104405  0.44327918    -2.29000
O1310       O  0.52662761  0.50142349  0.05660708    -0.73600
H1311       H  0.53348474  0.43452063  0.99848379     0.78400
H1312       H  0.97023023  0.00295257  0.08171244     0.79500
H1313       H  0.53609616  0.06745004  0.49462023     0.81700
H1314       H  0.96676429  0.00081375  0.42193469     0.79300
H1315       H  0.98584161  0.46176750  0.13419715     0.42300
H1316       H  0.52140264  0.04154120  0.13132109     0.41300
H1317       H  0.00078608  0.11473071  0.03675117     0.41000
H1318       H  0.51689177  0.11127475  0.45179053     0.38900
H1319       H  0.51013574  0.02341940  0.36591275     0.42000
H1320       H  0.98302075  0.46232255  0.37017316     0.36800
H1321       H  0.99795705  0.38968257  0.47156212     0.42900
H1322       H  0.51026927  0.38863209  0.04833600     0.39400
H1323       H  0.50762976  0.10919010  0.40966386     0.44300
H1324       H  0.00015796  0.43316276  0.36826881     0.43000
H1325       H  0.01008964  0.39524353  0.09099455     0.43100
H1326       H  0.50165107  0.06750638  0.13453440     0.43500
O1327       O  0.79265234  0.31650540  0.17819876    -0.75400
O1328       O  0.82038331  0.28882417  0.21207812    -0.54300
C1329       C  0.81423154  0.31039968  0.18804795     0.78300
O1330       O  0.71062864  0.31212639  0.32641028    -0.60000
O1331       O  0.68330319  0.28472175  0.29139650    -0.53000
C1332       C  0.68907863  0.30482861  0.31753058     0.70400
O1333       O  0.79042292  0.31827680  0.32295137    -0.74500
O1334       O  0.81904681  0.28867898  0.29375626    -0.55100
C1335       C  0.81224358  0.31131583  0.31582679     0.76400
O1336       O  0.71266312  0.31371954  0.17371455    -0.59700
O1337       O  0.68440622  0.28636683  0.20699346    -0.52800
C1338       C  0.69090638  0.30708822  0.18207288     0.73000
Zr1339     Zr  0.75260130  0.29784141  0.19317694     2.54700
O1340       O  0.75172903  0.35551300  0.19380833    -0.80300
O1341       O  0.75404168  0.29478522  0.12382381    -0.93700
Zr1342     Zr  0.75093603  0.29879260  0.30634819     2.64700
O1343       O  0.74615436  0.35606723  0.30376304    -0.98600
O1344       O  0.75356597  0.29783009  0.37560068    -0.80700
O1345       O  0.77481073  0.29932373  0.25061352    -0.84000
O1346       O  0.72879779  0.29879809  0.24894671    -2.18800
O1347       O  0.71381965  0.18711655  0.17435295    -0.67400
O1348       O  0.68542041  0.21482051  0.20659281    -0.52000
C1349       C  0.69204090  0.19349319  0.18263502     0.71300
O1350       O  0.79169170  0.18871142  0.32615083    -0.60300
O1351       O  0.81979427  0.21795894  0.29498847    -0.52300
C1352       C  0.81340127  0.19652509  0.31902767     0.73100
O1353       O  0.71149669  0.18817939  0.32352168    -0.71700
O1354       O  0.68376273  0.21540565  0.28935235    -0.50400
C1355       C  0.68988190  0.19450085  0.31414398     0.74500
O1356       O  0.79374501  0.18760660  0.17874067    -0.67100
O1357       O  0.82107401  0.21665946  0.21188866    -0.54300
C1358       C  0.81527693  0.19523794  0.18735410     0.72900
Zr1359     Zr  0.75336817  0.20407822  0.19451607     2.77500
O1360       O  0.75414414  0.14632831  0.19618790    -0.97800
O1361       O  0.75453242  0.20620817  0.12518660    -0.78600
Zr1362     Zr  0.75171671  0.20514698  0.30760233     2.70100
O1363       O  0.75153906  0.14747534  0.31032940    -0.79900
O1364       O  0.75022387  0.20885873  0.37685627    -0.99000
Zr1365     Zr  0.79802663  0.25223889  0.25202531     2.21500
Zr1366     Zr  0.70629349  0.25093936  0.24886479     2.11100
O1367       O  0.72950411  0.20360387  0.25018052    -2.47700
O1368       O  0.77564120  0.20421760  0.25193421    -0.79700
O1369       O  0.72966807  0.25056893  0.19211675    -0.71900
O1370       O  0.77456834  0.25238333  0.30879288    -2.32800
O1371       O  0.77626393  0.25134707  0.19361710    -2.29000
O1372       O  0.72804465  0.25159205  0.30720479    -0.73600
H1373       H  0.71853245  0.31711704  0.24862330     0.78400
H1374       H  0.78449138  0.25281726  0.33128239     0.79500
H1375       H  0.71950304  0.18498505  0.24993540     0.81700
H1376       H  0.78686895  0.25134356  0.17194402     0.79300
H1377       H  0.74607504  0.27749340  0.38302066     0.42300
H1378       H  0.73476937  0.21907221  0.38240836     0.41300
H1379       H  0.74393561  0.14077647  0.28614834     0.41000
H1380       H  0.73837721  0.13992144  0.20615175     0.38900
H1381       H  0.74381402  0.22391121  0.11836727     0.42000
H1382       H  0.76934473  0.28426213  0.11804606     0.36800
H1383       H  0.76290098  0.36165205  0.21437832     0.42900
H1384       H  0.75796201  0.36330449  0.28473817     0.39400
H1385       H  0.75390327  0.13986783  0.16903210     0.44300
H1386       H  0.75637706  0.31699823  0.11548228     0.43000
H1387       H  0.75227907  0.36379225  0.32856498     0.43100
H1388       H  0.74814917  0.18668373  0.38552251     0.43500
C1389       C  0.60422045  0.13044540  0.08672529    -0.11500
C1390       C  0.62243172  0.11508682  0.10668156     0.15100
C1391       C  0.62242953  0.08166436  0.10931141     0.02000
C1392       C  0.60391671  0.06442833  0.09242117    -0.15800
C1393       C  0.58540847  0.07985903  0.07310380    -0.10600
C1394       C  0.58591310  0.11320722  0.06951465     0.08700
C1395       C  0.64049300  0.13491055  0.12565886     0.09700
S1396       S  0.64484746  0.05959181  0.13483199    -0.25000
H1397       H  0.60364756  0.03882282  0.09512198     0.20000
S1398       S  0.56424358  0.13498613  0.04222958    -0.30700
H1399       H  0.60436372  0.15607786  0.08440969     0.10300
C1400       C  0.66054604  0.14623165  0.10587773     0.03500
C1401       C  0.67697356  0.16566216  0.12495846    -0.13000
C1402       C  0.67347399  0.17442576  0.16329234    -0.08600
C1403       C  0.65310659  0.16305714  0.18274753     0.07000
C1404       C  0.63698124  0.14333955  0.16381352    -0.13700
S1405       S  0.66534183  0.13532287  0.05664605    -0.30600
H1406       H  0.69259374  0.17409746  0.10998998     0.11200
S1407       S  0.64751809  0.17097366  0.23236979    -0.27700
H1408       H  0.62150356  0.13451157  0.17890631     0.08400
H1409       H  0.56217993  0.11205964  0.01327392     0.26900
H1410       H  0.68611676  0.15338982  0.05120536     0.21700
H1411       H  0.64241847  0.20315280  0.22571000     0.27000
H1412       H  0.66289779  0.08261260  0.13391817     0.15800
C1413       C  0.63055377  0.16511264  0.35347199    -0.11500
C1414       C  0.63622913  0.13351506  0.36183373     0.15100
C1415       C  0.65946326  0.12244110  0.35515257     0.02000
C1416       C  0.67658499  0.14321044  0.34076384    -0.15800
C1417       C  0.67107126  0.17490487  0.33206384    -0.10600
C1418       C  0.64773072  0.18603678  0.33909053     0.08700
C1419       C  0.61788311  0.11296634  0.37904396     0.09700
S1420       S  0.66838603  0.08207571  0.36427465    -0.25000
H1421       H  0.69427093  0.13414641  0.33525278     0.20000
S1422       S  0.63895851  0.22674234  0.33218487    -0.30700
H1423       H  0.61274851  0.17370493  0.35909935     0.10300
C1424       C  0.61792800  0.10631035  0.41840264     0.03500
C1425       C  0.60040325  0.08629997  0.43351816    -0.13000
C1426       C  0.58269407  0.07302341  0.41012609    -0.08600
C1427       C  0.58305728  0.07923173  0.37048789     0.07000
C1428       C  0.60048072  0.09941510  0.35546964    -0.13700
S1429       S  0.63983918  0.12410235  0.44953712    -0.30600
H1430       H  0.60001906  0.08174676  0.46391889     0.11200
S1431       S  0.56238798  0.06141840  0.33746683    -0.27700
H1432       H  0.60073998  0.10421492  0.32509459     0.08400
H1433       H  0.66050393  0.23962738  0.34559535     0.26900
H1434       H  0.63192994  0.10980239  0.48351381     0.21700
H1435       H  0.55952173  0.03304012  0.35802390     0.27000
H1436       H  0.64622443  0.06806615  0.35640146     0.15800
C1437       C  0.65591193  0.35206603  0.10645756    -0.11500
C1438       C  0.63696840  0.36391898  0.12810888     0.15100
C1439       C  0.63521602  0.35581908  0.16711076     0.02000
C1440       C  0.65282292  0.33690751  0.18381259    -0.15800
C1441       C  0.67210329  0.32548241  0.16238897    -0.10600
C1442       C  0.67346996  0.33289750  0.12308437     0.08700
C1443       C  0.61925253  0.38446950  0.10905928     0.09700
S1444       S  0.61117980  0.36907304  0.19724467    -0.25000
H1445       H  0.65161738  0.33139896  0.21395102     0.20000
S1446       S  0.69689624  0.31699079  0.09346209    -0.30700
H1447       H  0.65687561  0.35796324  0.07643433     0.10300
C1448       C  0.61934457  0.41766007  0.11395890     0.03500
C1449       C  0.60154820  0.43598422  0.09655494    -0.13000
C1450       C  0.58363814  0.42168616  0.07453777    -0.08600
C1451       C  0.58417278  0.38855235  0.06854155     0.07000
C1452       C  0.60186270  0.37032639  0.08596957    -0.13700
S1453       S  0.64215240  0.43659751  0.14226461    -0.30600
H1454       H  0.60127702  0.46143398  0.10063794     0.11200
S1455       S  0.56310620  0.36827629  0.03834800    -0.27700
H1456       H  0.60200282  0.34487047  0.08172819     0.08400
H1457       H  0.68972420  0.33129620  0.05911471     0.26900
H1458       H  0.63298281  0.46754737  0.13995822     0.21700
H1459       H  0.56157505  0.39270155  0.01120022     0.27000
H1460       H  0.59410760  0.37319046  0.16843674     0.15800
C1461       C  0.85068476  0.14973034  0.11262295    -0.11500
C1462       C  0.87100257  0.14139702  0.13335242     0.15100
C1463       C  0.87361798  0.15230086  0.17120590     0.02000
C1464       C  0.85538380  0.17010038  0.18802079    -0.15800
C1465       C  0.83467946  0.17792876  0.16759426    -0.10600
C1466       C  0.83274392  0.16817930  0.12899962     0.08700
C1467       C  0.88888822  0.12078169  0.11488000     0.09700
S1468       S  0.89959625  0.14384079  0.19961896    -0.25000
H1469       H  0.85727890  0.17756013  0.21744056     0.20000
S1470       S  0.80840247  0.17947970  0.09845926    -0.30700
H1471       H  0.84885075  0.14187530  0.08331946     0.10300
C1472       C  0.89051760  0.08827632  0.12383125     0.03500
C1473       C  0.90799717  0.06969097  0.10615078    -0.13000
C1474       C  0.92385721  0.08305041  0.07978226    -0.08600
C1475       C  0.92176224  0.11535675  0.06994340     0.05200
C1476       C  0.90429393  0.13394791  0.08767376    -0.13700
S1477       S  0.87004944  0.07041208  0.15724328    -0.30600
H1478       H  0.90951015  0.04475317  0.11306648     0.11200
S1479       S  0.94056925  0.13250267  0.03354996    -0.27700
H1480       H  0.90261681  0.15882150  0.08054386     0.08400
H1481       H  0.80674996  0.21051703  0.11297792     0.26900
H1482       H  0.88035153  0.04005182  0.15729598     0.21700
H1483       H  0.92968709  0.16249436  0.03277547     0.27000
H1484       H  0.91578332  0.14149168  0.16923183     0.15800
C1485       C  0.88226879  0.39517537  0.42742955    -0.11500
C1486       C  0.88522230  0.38584353  0.38937955     0.15100
C1487       C  0.90559912  0.39561963  0.36909707     0.02000
C1488       C  0.92269503  0.41423859  0.38743005    -0.15800
C1489       C  0.91976566  0.42396444  0.42550320    -0.10600
C1490       C  0.89929421  0.41404127  0.44570561     0.08700
C1491       C  0.86663907  0.36614556  0.37148838     0.09700
S1492       S  0.91094815  0.38483180  0.32002362    -0.25000
H1493       H  0.93833473  0.42153900  0.37160242     0.20000
S1494       S  0.89499896  0.42207667  0.49557929    -0.30700
H1495       H  0.86671675  0.38734532  0.44310987     0.10300
C1496       C  0.86942954  0.33324581  0.36657598     0.03500
C1497       C  0.85151912  0.31586786  0.34801261    -0.13000
C1498       C  0.83084901  0.33082629  0.33441877    -0.08600
C1499       C  0.82839599  0.36402540  0.33927733     0.07000
C1500       C  0.84608351  0.38109216  0.35826812    -0.13700
S1501       S  0.89559541  0.31348008  0.38455023    -0.30600
H1502       H  0.85345982  0.29050186  0.34448970     0.11200
S1503       S  0.80397973  0.38664039  0.32022650    -0.27700
H1504       H  0.84419050  0.40650659  0.36172521     0.08400
H1505       H  0.89174140  0.45474004  0.48958388     0.26900
H1506       H  0.88896776  0.28263128  0.37352919     0.21700
H1507       H  0.80202019  0.36916977  0.28623727     0.27000
H1508       H  0.88699225  0.38455587  0.30862270     0.15800
C1509       C  0.88190816  0.08923342  0.39537190    -0.11500
C1510       C  0.88634865  0.12183591  0.39212152     0.15100
C1511       C  0.90837795  0.13423086  0.40445536     0.02000
C1512       C  0.92576949  0.11362801  0.41839141    -0.15800
C1513       C  0.92153002  0.08086014  0.42127659    -0.10600
C1514       C  0.89927009  0.06858143  0.40944463     0.08700
C1515       C  0.86817930  0.14188913  0.37363435     0.09700
S1516       S  0.91537401  0.17600300  0.40315967    -0.25000
H1517       H  0.94260809  0.12339583  0.42790504     0.20000
S1518       S  0.89231919  0.02680384  0.40943330    -0.30700
H1519       H  0.86505213  0.07967915  0.38563589     0.10300
C1520       C  0.87117627  0.15304006  0.33608592     0.03500
C1521       C  0.85329258  0.17145772  0.31927504    -0.13000
C1522       C  0.83242669  0.17908026  0.33932051    -0.08600
C1523       C  0.82990770  0.16859962  0.37750646     0.07000
C1524       C  0.84755538  0.14965013  0.39389640    -0.13700
S1525       S  0.89729205  0.14266594  0.30893738    -0.30600
H1526       H  0.85527784  0.17915627  0.28999038     0.11200
S1527       S  0.80529237  0.17977060  0.40752824    -0.27700
H1528       H  0.84547908  0.14146507  0.42301444     0.08400
H1529       H  0.91535542  0.01678186  0.39958010     0.26900
H1530       H  0.89393318  0.16544681  0.28018494     0.21700
H1531       H  0.80350412  0.21076874  0.39295713     0.27000
H1532       H  0.89191806  0.18684650  0.40750341     0.15800
C1533       C  0.61928467  0.41233768  0.39119669    -0.11500
C1534       C  0.61536827  0.37948158  0.39001913     0.15100
C1535       C  0.59387628  0.36704614  0.40457903     0.02000
C1536       C  0.57670125  0.38769508  0.41928406    -0.15800
C1537       C  0.58050378  0.42065644  0.42041937    -0.10600
C1538       C  0.60207922  0.43303543  0.40585303     0.08700
C1539       C  0.63358302  0.35907148  0.37183401     0.09700
S1540       S  0.58710836  0.32518959  0.40479432    -0.25000
H1541       H  0.56032449  0.37783432  0.43053491     0.20000
S1542       S  0.60831091  0.47496688  0.40349782    -0.30700
H1543       H  0.63565993  0.42198893  0.37969894     0.10300
C1544       C  0.63087293  0.34802163  0.33418087     0.03500
C1545       C  0.64883718  0.32949349  0.31761074    -0.13000
C1546       C  0.66962636  0.32176945  0.33789032    -0.08600
C1547       C  0.67183500  0.33194387  0.37631095     0.07000
C1548       C  0.65391996  0.35077387  0.39259518    -0.13700
S1549       S  0.60491528  0.35860843  0.30672823    -0.30600
H1550       H  0.64703477  0.32193085  0.28823986     0.11200
S1551       S  0.69673915  0.31996185  0.40558103    -0.27700
H1552       H  0.65559162  0.35898689  0.42174009     0.08400
H1553       H  0.58494109  0.48382698  0.39393305     0.26900
H1554       H  0.60945231  0.33823944  0.27583745     0.21700
H1555       H  0.68964076  0.33540057  0.43925436     0.27000
H1556       H  0.61068961  0.31435855  0.40626309     0.15800
C1557       C  0.90321350  0.37385680  0.09237406    -0.11500
C1558       C  0.88582350  0.38809898  0.11522936     0.15100
C1559       C  0.88624154  0.42127592  0.12072174     0.02000
C1560       C  0.90418163  0.43940820  0.10359382    -0.15800
C1561       C  0.92163136  0.42511810  0.08080297    -0.10600
C1562       C  0.92088325  0.39199345  0.07471561     0.08700
C1563       C  0.86770272  0.36763882  0.13336937     0.09700
S1564       S  0.86445615  0.44175392  0.14924956    -0.25000
H1565       H  0.90458017  0.46482602  0.10816028     0.20000
S1566       S  0.94136508  0.37159704  0.04365950    -0.30700
H1567       H  0.90280404  0.34843200  0.08789382     0.10300
C1568       C  0.84895604  0.35426668  0.11206698     0.03500
C1569       C  0.83172288  0.33578416  0.13066695    -0.13000
C1570       C  0.83313885  0.32981470  0.17006100    -0.08600
C1571       C  0.85220253  0.34310774  0.19113341     0.07000
C1572       C  0.86927132  0.36166458  0.17256164    -0.13700
S1573       S  0.84678359  0.36124794  0.06133560    -0.30600
H1574       H  0.81715520  0.32572001  0.11443875     0.11200
S1575       S  0.85509419  0.33896645  0.24198443    -0.27700
H1576       H  0.88368710  0.37205438  0.18890556     0.08400
H1577       H  0.94402835  0.39657036  0.01740667     0.26900
H1578       H  0.82754777  0.34061392  0.05461330     0.21700
H1579       H  0.83063300  0.34231046  0.24868177     0.27000
H1580       H  0.84537138  0.42136963  0.14068013     0.15800
O1581       O  0.95972042  0.43592791  0.93174514    -0.75400
O1582       O  0.93285128  0.46666123  0.96322933    -0.54300
C1583       C  0.93835687  0.44365550  0.94088724     0.78300
O1584       O  0.54409523  0.43957526  0.57285118    -0.60000
O1585       O  0.57135554  0.46879673  0.53972428    -0.53000
C1586       C  0.56554645  0.44650422  0.56287122     0.70400
O1587       O  0.96379101  0.43777495  0.57467372    -0.74500
O1588       O  0.93542573  0.46823477  0.54600496    -0.55100
C1589       C  0.94203164  0.44519174  0.56751217     0.76400
O1590       O  0.53884198  0.43592921  0.92423824    -0.59700
O1591       O  0.56778116  0.46415160  0.95498018    -0.52800
C1592       C  0.56071202  0.44258722  0.93160480     0.73000
Zr1593     Zr  0.00005367  0.45381918  0.94396739     2.54700
O1594       O  0.00053524  0.39619939  0.94745611    -0.80300
O1595       O  0.49683416  0.45604309  0.87477944    -0.93700
Zr1596     Zr  0.00360327  0.45746143  0.55959220     2.64700
O1597       O  0.00200442  0.40082687  0.57297486    -0.98600
O1598       O  0.50474715  0.47409949  0.62927445    -0.80700
O1599       O  0.97832377  0.45533666  0.00174287    -0.84000
O1600       O  0.52379407  0.45331658  0.99931178    -2.18800
O1601       O  0.54048063  0.06439213  0.92189872    -0.67400
O1602       O  0.56864667  0.03689242  0.95498985    -0.52000
C1603       C  0.56216330  0.05767541  0.93031313     0.71300
O1604       O  0.96505804  0.07121477  0.57084207    -0.60300
O1605       O  0.93603315  0.04157622  0.54242811    -0.52300
C1606       C  0.94312669  0.06457299  0.56372524     0.73100
O1607       O  0.54489115  0.06956718  0.56605505    -0.71700
O1608       O  0.57151140  0.03673191  0.53678905    -0.50400
C1609       C  0.56616114  0.06069692  0.55773558     0.74500
O1610       O  0.96117920  0.06711202  0.92970666    -0.67100
O1611       O  0.93378391  0.03778697  0.96243908    -0.54300
C1612       C  0.93967790  0.05991504  0.93896870     0.72900
Zr1613     Zr  0.50077251  0.04838127  0.94217927     2.77500
O1614       O  0.50179967  0.10597367  0.93709110    -0.97800
O1615       O  0.49762179  0.04190641  0.87335618    -0.78600
Zr1616     Zr  0.50425393  0.05138809  0.55455378     2.70100
O1617       O  0.50599729  0.10889373  0.55964700    -0.79900
O1618       O  0.50423406  0.04590913  0.62369575    -0.99000
Zr1619     Zr  0.95673115  0.00382247  0.50239923     2.21500
Zr1620     Zr  0.54729248  0.50033317  0.99729882     2.11100
O1621       O  0.52570058  0.04926831  0.49640851    -2.47700
O1622       O  0.98051119  0.05029650  0.49900942    -0.79700
O1623       O  0.52369187  0.50032603  0.94076835    -0.71900
O1624       O  0.98000249  0.00478294  0.55945416    -2.32800
O1625       O  0.97751878  0.00114594  0.94330401    -2.29000
O1626       O  0.52704780  0.50581943  0.55820162    -0.73600
H1627       H  0.53446130  0.43641817  0.50424276     0.78400
H1628       H  0.96998794  0.00579060  0.58178607     0.79500
H1629       H  0.53506548  0.06813651  0.99607434     0.81700
H1630       H  0.96660841  0.00100921  0.92202329     0.79300
H1631       H  0.02210398  0.46466348  0.63487835     0.42300
H1632       H  0.51969961  0.05482605  0.63196214     0.41300
H1633       H  0.00631967  0.11446306  0.52858589     0.41000
H1634       H  0.51509616  0.11272239  0.95377263     0.38900
H1635       H  0.51018352  0.02643565  0.86680419     0.42000
H1636       H  0.98234445  0.46603786  0.86897038     0.36800
H1637       H  0.99325084  0.39126090  0.97248567     0.42900
H1638       H  0.51164625  0.39235778  0.56197743     0.39400
H1639       H  0.50744078  0.11027033  0.91083408     0.44300
H1640       H  0.99434576  0.43261791  0.86730292     0.43000
H1641       H  0.01323005  0.39726710  0.59430496     0.43100
H1642       H  0.49231744  0.06143972  0.63271608     0.43500
O1643       O  0.79312790  0.31882096  0.68158513    -0.75400
O1644       O  0.82054880  0.28928053  0.71366966    -0.54300
C1645       C  0.81467640  0.31173454  0.69068115     0.78300
O1646       O  0.71022675  0.31315354  0.82611766    -0.60000
O1647       O  0.68297180  0.28524388  0.79168072    -0.53000
C1648       C  0.68869614  0.30591166  0.81710069     0.70400
O1649       O  0.79015977  0.31786966  0.82362888    -0.74500
O1650       O  0.81861555  0.28771143  0.79479510    -0.55100
C1651       C  0.81191092  0.31064038  0.81640473     0.76400
O1652       O  0.71306436  0.31714364  0.67609327    -0.59700
O1653       O  0.68460312  0.28902519  0.70809896    -0.52800
C1654       C  0.69128871  0.31036002  0.68404166     0.73000
Zr1655     Zr  0.75276708  0.30058616  0.69552409     2.54700
O1656       O  0.75210493  0.35829368  0.69678902    -0.80300
O1657       O  0.75496558  0.29815711  0.62619675    -0.93700
Zr1658     Zr  0.75063062  0.29766056  0.80887815     2.64700
O1659       O  0.74621215  0.35482392  0.81540170    -0.98600
O1660       O  0.75173251  0.28992366  0.87765013    -0.80700
O1661       O  0.77464714  0.29989360  0.75324125    -0.84000
O1662       O  0.72883352  0.29982928  0.75125076    -2.18800
O1663       O  0.71266531  0.19016456  0.67327178    -0.67400
O1664       O  0.68441211  0.21731167  0.70654741    -0.52000
C1665       C  0.69092746  0.19632868  0.68213722     0.71300
O1666       O  0.79108279  0.18625201  0.82254095    -0.60300
O1667       O  0.81936718  0.21624511  0.79294221    -0.52300
C1668       C  0.81284499  0.19401864  0.81583966     0.73100
O1669       O  0.71093876  0.18866956  0.82333818    -0.71700
O1670       O  0.68345094  0.21622744  0.78907992    -0.50400
C1671       C  0.68936473  0.19532651  0.81403518     0.74500
O1672       O  0.79285445  0.18971279  0.67722354    -0.67100
O1673       O  0.82036773  0.21819789  0.71036562    -0.54300
C1674       C  0.81446562  0.19690391  0.68576105     0.72900
Zr1675     Zr  0.75256843  0.20710508  0.69205496     2.77500
O1676       O  0.75392108  0.14962313  0.68601372    -0.97800
O1677       O  0.75346221  0.21476297  0.62322910    -0.78600
Zr1678     Zr  0.75120829  0.20400205  0.80534147     2.70100
O1679       O  0.74967299  0.14641007  0.80179378    -0.79900
O1680       O  0.75206620  0.20214452  0.87471564    -0.99000
Zr1681     Zr  0.79754170  0.25244850  0.75218927     2.21500
Zr1682     Zr  0.70603487  0.25221416  0.74900100     2.11100
O1683       O  0.72892923  0.20462655  0.74797808    -2.47700
O1684       O  0.77484328  0.20483693  0.74944992    -0.79700
O1685       O  0.72924114  0.25386356  0.69214347    -0.71900
O1686       O  0.77420825  0.25108011  0.80911047    -2.32800
O1687       O  0.77600042  0.25384706  0.69367743    -2.29000
O1688       O  0.72765035  0.25061096  0.80740283    -0.73600
H1689       H  0.71867106  0.31825518  0.75157408     0.78400
H1690       H  0.78419589  0.25072615  0.83153774     0.79500
H1691       H  0.71883023  0.18611420  0.74719807     0.81700
H1692       H  0.78666834  0.25434415  0.67212246     0.79300
H1693       H  0.75251253  0.31163502  0.88832009     0.42300
H1694       H  0.74107190  0.21913058  0.88285692     0.41300
H1695       H  0.74944524  0.14166153  0.77414153     0.41000
H1696       H  0.73959299  0.14187452  0.69954148     0.38900
H1697       H  0.74101397  0.23078697  0.61817605     0.42000
H1698       H  0.77094200  0.28951992  0.62053170     0.36800
H1699       H  0.76350002  0.36417775  0.71715967     0.42900
H1700       H  0.75623472  0.36386167  0.79489855     0.39400
H1701       H  0.75064083  0.14549396  0.65870325     0.44300
H1702       H  0.75585955  0.32059697  0.61806616     0.43000
H1703       H  0.75453019  0.36029752  0.83942335     0.43100
H1704       H  0.74377624  0.18216779  0.88144908     0.43500
C1705       C  0.60528850  0.13069195  0.58274305    -0.11500
C1706       C  0.62194645  0.11651009  0.60701192     0.15100
C1707       C  0.62071411  0.08354970  0.61399772     0.02000
C1708       C  0.60268767  0.06560175  0.59677433    -0.15800
C1709       C  0.58581623  0.07994422  0.57294129    -0.10600
C1710       C  0.58743648  0.11274858  0.56535844     0.08700
C1711       C  0.63967393  0.13712575  0.62573580     0.09700
S1712       S  0.64104876  0.06323443  0.64538964    -0.25000
H1713       H  0.60146376  0.04042590  0.60270072     0.20000
S1714       S  0.56760248  0.13287090  0.53308251    -0.30700
H1715       H  0.60626477  0.15595562  0.57726064     0.10300
C1716       C  0.65880283  0.15037242  0.60523440     0.03500
C1717       C  0.67494559  0.17033016  0.62409867    -0.13000
C1718       C  0.67230450  0.17731397  0.66306411    -0.08600
C1719       C  0.65300788  0.16390271  0.68337541     0.07000
C1720       C  0.63697616  0.14398438  0.66454558    -0.13700
S1721       S  0.66315738  0.14079355  0.55549546    -0.30600
H1722       H  0.68983462  0.18030908  0.60858626     0.11200
S1723       S  0.64896780  0.16923505  0.73385623    -0.27700
H1724       H  0.62230022  0.13361691  0.68027519     0.08400
H1725       H  0.56618684  0.10768652  0.50690503     0.26900
H1726       H  0.68445812  0.15786598  0.55062854     0.21700
H1727       H  0.64261043  0.20130975  0.72985403     0.27000
H1728       H  0.66045688  0.08378988  0.63998334     0.15800
C1729       C  0.62962176  0.16699653  0.85329427    -0.11500
C1730       C  0.63508192  0.13552596  0.86259239     0.15100
C1731       C  0.65824566  0.12403323  0.85609303     0.02000
C1732       C  0.67559940  0.14449394  0.84167393    -0.15800
C1733       C  0.67033090  0.17614606  0.83224483    -0.10600
C1734       C  0.64694427  0.18749049  0.83851360     0.08700
C1735       C  0.61648927  0.11557022  0.88020929     0.09700
S1736       S  0.66673476  0.08341921  0.86493198    -0.25000
H1737       H  0.69323694  0.13514503  0.83647275     0.20000
S1738       S  0.63813484  0.22790707  0.82974902    -0.30700
H1739       H  0.61183252  0.17585869  0.85844985     0.10300
C1740       C  0.61749073  0.10720928  0.91910020     0.03500
C1741       C  0.59975650  0.08766677  0.93441756    -0.13000
C1742       C  0.58105747  0.07626130  0.91163711    -0.08600
C1743       C  0.58028769  0.08439019  0.87253466     0.07000
C1744       C  0.59779700  0.10435066  0.85740793    -0.13700
S1745       S  0.64100668  0.12203340  0.94945205    -0.30600
H1746       H  0.60015671  0.08174654  0.96448091     0.11200
S1747       S  0.55816444  0.06895046  0.84018754    -0.27700
H1748       H  0.59723991  0.11052275  0.82740627     0.08400
H1749       H  0.65940980  0.24116686  0.84368261     0.26900
H1750       H  0.63355847  0.10688662  0.98316498     0.21700
H1751       H  0.55653145  0.03903012  0.85776969     0.27000
H1752       H  0.64415565  0.06993866  0.85900419     0.15800
C1753       C  0.65637966  0.35607232  0.60925891    -0.11500
C1754       C  0.63859379  0.36988197  0.63172802     0.15100
C1755       C  0.63761402  0.36302014  0.67110014     0.02000
C1756       C  0.65464400  0.34292651  0.68727781    -0.15800
C1757       C  0.67273364  0.32946313  0.66497139    -0.10600
C1758       C  0.67350731  0.33600859  0.62542985     0.08700
C1759       C  0.62074980  0.39031360  0.61294415     0.09700
S1760       S  0.61538360  0.37974743  0.70216324    -0.25000
H1761       H  0.65406032  0.33826251  0.71766295     0.20000
S1762       S  0.69576298  0.31814882  0.59513222    -0.30700
H1763       H  0.65680733  0.36117749  0.57899158     0.10300
C1764       C  0.62108698  0.42361350  0.61671676     0.03500
C1765       C  0.60308977  0.44164378  0.59944377    -0.13000
C1766       C  0.58484173  0.42692249  0.57858801    -0.08600
C1767       C  0.58517778  0.39368368  0.57360816     0.07000
C1768       C  0.60298693  0.37576583  0.59102061    -0.13700
S1769       S  0.64450644  0.44308160  0.64314362    -0.30600
H1770       H  0.60297738  0.46718855  0.60261388     0.11200
S1771       S  0.56376523  0.37288164  0.54459113    -0.27700
H1772       H  0.60298423  0.35022201  0.58758225     0.08400
H1773       H  0.68665990  0.32913617  0.56017756     0.26900
H1774       H  0.63593933  0.47419679  0.63882274     0.21700
H1775       H  0.56289073  0.39627478  0.51609899     0.27000
H1776       H  0.59684071  0.37938879  0.67526564     0.15800
C1777       C  0.84850356  0.14286761  0.61750857    -0.11500
C1778       C  0.87055563  0.14072699  0.63579890     0.15100
C1779       C  0.87465634  0.15861445  0.66917008     0.02000
C1780       C  0.85634148  0.17724232  0.68430432    -0.15800
C1781       C  0.83386406  0.17884541  0.66661762    -0.10600
C1782       C  0.83039422  0.16208514  0.63188853     0.08700
C1783       C  0.88923034  0.12090103  0.61804774     0.09700
S1784       S  0.90283585  0.15845002  0.69368678    -0.25000
H1785       H  0.85961796  0.19006106  0.71058176     0.20000
S1786       S  0.80408590  0.16555466  0.60282642    -0.30700
H1787       H  0.84562702  0.13008246  0.59106345     0.10300
C1788       C  0.88705464  0.08762877  0.61630916     0.03500
C1789       C  0.90476529  0.06983318  0.59809125    -0.13000
C1790       C  0.92470076  0.08460790  0.58172175    -0.08600
C1791       C  0.92659039  0.11804447  0.58281887     0.05200
C1792       C  0.90888255  0.13577642  0.60114673    -0.13700
S1793       S  0.86205698  0.06775720  0.63823605    -0.30600
H1794       H  0.90331441  0.04424019  0.59711303     0.11200
S1795       S  0.95058719  0.13850190  0.55885832    -0.27700
H1796       H  0.91005139  0.16139768  0.60186193     0.08400
H1797       H  0.80274528  0.19871586  0.60683311     0.26900
H1798       H  0.86828989  0.03678534  0.62728052     0.21700
H1799       H  0.94340153  0.16953222  0.56786946     0.27000
H1800       H  0.90784932  0.12635241  0.68650948     0.15800
C1801       C  0.88108186  0.39710363  0.92530402    -0.11500
C1802       C  0.88495228  0.38518404  0.88853696     0.15100
C1803       C  0.90597842  0.39316152  0.86883475     0.02000
C1804       C  0.92280062  0.41252936  0.88660293    -0.15800
C1805       C  0.91908627  0.42462229  0.92350289    -0.10600
C1806       C  0.89786520  0.41668778  0.94299962     0.08700
C1807       C  0.86633716  0.36543305  0.87103020     0.09700
S1808       S  0.91271292  0.37922913  0.82130807    -0.25000
H1809       H  0.93895066  0.41838337  0.87124446     0.20000
S1810       S  0.89192778  0.42873546  0.99126835    -0.30700
H1811       H  0.86490582  0.39089465  0.94039690     0.10300
C1812       C  0.86878567  0.33236560  0.86733486     0.03500
C1813       C  0.85088516  0.31501619  0.84888010    -0.13000
C1814       C  0.83060349  0.33016347  0.83426939    -0.08600
C1815       C  0.82860385  0.36350975  0.83740053     0.07000
C1816       C  0.84622754  0.38059696  0.85642220    -0.13700
S1817       S  0.89442661  0.31230852  0.88672189    -0.30600
H1818       H  0.85247019  0.28952066  0.84636800     0.11200
S1819       S  0.80502499  0.38613583  0.81574628    -0.27700
H1820       H  0.84471884  0.40615255  0.85865595     0.08400
H1821       H  0.88908599  0.46076877  0.98109720     0.26900
H1822       H  0.88762380  0.28141243  0.87611956     0.21700
H1823       H  0.80270003  0.36678937  0.78328148     0.27000
H1824       H  0.88924516  0.37445181  0.80886374     0.15800
C1825       C  0.88246552  0.08523919  0.88953074    -0.11500
C1826       C  0.88547114  0.11825390  0.88864330     0.15100
C1827       C  0.90597196  0.13187674  0.90513334     0.02000
C1828       C  0.92339320  0.11220622  0.92085042    -0.15800
C1829       C  0.92057261  0.07910197  0.92156754    -0.10600
C1830       C  0.89978021  0.06550553  0.90567425     0.08700
C1831       C  0.86717905  0.13783421  0.86964605     0.09700
S1832       S  0.91099045  0.17411712  0.90677246    -0.25000
H1833       H  0.93914766  0.12289961  0.93326508     0.20000
S1834       S  0.89467537  0.02327993  0.90370261    -0.30700
H1835       H  0.86670694  0.07475765  0.87688877     0.10300
C1836       C  0.87040623  0.14950791  0.83236359     0.03500
C1837       C  0.85258221  0.16816392  0.81559389    -0.13000
C1838       C  0.83168730  0.17575163  0.83561719    -0.08600
C1839       C  0.82901125  0.16476380  0.87358130     0.07000
C1840       C  0.84648885  0.14545044  0.88976125    -0.13700
S1841       S  0.89704136  0.14018800  0.80596986    -0.30600
H1842       H  0.85472419  0.17637292  0.78652879     0.11200
S1843       S  0.80443255  0.17574436  0.90374882    -0.27700
H1844       H  0.84427777  0.13698676  0.91873801     0.08400
H1845       H  0.91857465  0.01508469  0.89730172     0.26900
H1846       H  0.89265729  0.16108647  0.77559428     0.21700
H1847       H  0.80294878  0.20700207  0.88992718     0.27000
H1848       H  0.88696296  0.18277894  0.91003223     0.15800
C1849       C  0.61715079  0.41517899  0.88225002    -0.11500
C1850       C  0.61400262  0.38217050  0.88325228     0.15100
C1851       C  0.59316544  0.36936064  0.89960314     0.02000
C1852       C  0.57575181  0.38979918  0.91372237    -0.15800
C1853       C  0.57891831  0.42282620  0.91305846    -0.10600
C1854       C  0.59981302  0.43566001  0.89680431     0.08700
C1855       C  0.63261502  0.36180665  0.86651299     0.09700
S1856       S  0.58776301  0.32729843  0.90390080    -0.25000
H1857       H  0.55992036  0.37975852  0.92663835     0.20000
S1858       S  0.60506323  0.47776828  0.89272643    -0.30700
H1859       H  0.63310988  0.42503239  0.86956492     0.10300
C1860       C  0.62988376  0.34812383  0.83016800     0.03500
C1861       C  0.64814334  0.32926580  0.81524135    -0.13000
C1862       C  0.66915015  0.32365115  0.83600171    -0.08600
C1863       C  0.67135360  0.33649941  0.87324102     0.07000
C1864       C  0.65317836  0.35575822  0.88776904    -0.13700
S1865       S  0.60342066  0.35543698  0.80236770    -0.30600
H1866       H  0.64630526  0.31962180  0.78677246     0.11200
S1867       S  0.69648987  0.32737092  0.90348053    -0.27700
H1868       H  0.65474325  0.36588707  0.91604956     0.08400
H1869       H  0.58106062  0.48613594  0.88771640     0.26900
H1870       H  0.60829256  0.33329603  0.77339672     0.21700
H1871       H  0.68977537  0.34607338  0.93489196     0.27000
H1872       H  0.61163177  0.31760110  0.90424721     0.15800
C1873       C  0.90599598  0.37413834  0.60051796    -0.11500
C1874       C  0.88679351  0.38898425  0.61852579     0.15100
C1875       C  0.88553723  0.42244037  0.61914603     0.02000
C1876       C  0.90387293  0.44023229  0.60256967    -0.15800
C1877       C  0.92321108  0.42538672  0.58470704    -0.10600
C1878       C  0.92387121  0.39190693  0.58285121     0.08700
C1879       C  0.86850201  0.36876596  0.63644243     0.09700
S1880       S  0.86142274  0.44400484  0.64105474    -0.25000
H1881       H  0.90305260  0.46589383  0.60361034     0.20000
S1882       S  0.94596930  0.37050811  0.55598588    -0.30700
H1883       H  0.90669232  0.34847304  0.59933574     0.10300
C1884       C  0.84845936  0.35833908  0.61588651     0.03500
C1885       C  0.83124993  0.33969155  0.63428432    -0.13000
C1886       C  0.83384137  0.33086349  0.67277565    -0.08600
C1887       C  0.85430960  0.34110827  0.69297058     0.07000
C1888       C  0.87141697  0.35969763  0.67452862    -0.13700
S1889       S  0.84463131  0.36950042  0.56651049    -0.30600
H1890       H  0.81570413  0.33188781  0.61861026     0.11200
S1891       S  0.85906409  0.33310641  0.74276721    -0.27700
H1892       H  0.88692061  0.36773717  0.69021201     0.08400
H1893       H  0.94746233  0.39277265  0.52617058     0.26900
H1894       H  0.82406535  0.35128700  0.55981964     0.21700
H1895       H  0.83533823  0.33935386  0.75247224     0.27000
H1896       H  0.84403641  0.42016487  0.63901470     0.15800
O1897       O  0.95900117  0.93742910  0.43232663    -0.75400
O1898       O  0.93250116  0.96822585  0.46439526    -0.54300
C1899       C  0.93768107  0.94547113  0.44149772     0.78300
O1900       O  0.54352872  0.93722524  0.06944748    -0.60000
O1901       O  0.57080770  0.96689871  0.03693489    -0.53000
C1902       C  0.56500827  0.94418547  0.05953754     0.70400
O1903       O  0.96392104  0.93518086  0.07192652    -0.74500
O1904       O  0.93547825  0.96622871  0.04443486    -0.55100
C1905       C  0.94218440  0.94276594  0.06520922     0.76400
O1906       O  0.53937823  0.93457778  0.42799514    -0.59700
O1907       O  0.56832093  0.96378823  0.45729427    -0.52800
C1908       C  0.56128067  0.94150664  0.43488263     0.73000
Zr1909     Zr  0.99988368  0.95330545  0.44566160     2.54700
O1910       O  0.99919555  0.89585076  0.45237282    -0.80300
O1911       O  0.49800351  0.95344455  0.37702728    -0.93700
Zr1912     Zr  0.00343897  0.95567265  0.05773461     2.64700
O1913       O  0.00162867  0.89879815  0.06961756    -0.98600
O1914       O  0.50433532  0.96847162  0.12673327    -0.80700
O1915       O  0.97857153  0.95560097  0.50375915    -0.84000
O1916       O  0.52403603  0.95438120  0.50182584    -2.18800
O1917       O  0.54108395  0.56274402  0.42096142    -0.67400
O1918       O  0.56920230  0.53601727  0.45513084    -0.52000
C1919       C  0.56277849  0.55636888  0.42988383     0.71300
O1920       O  0.96419939  0.57079472  0.06936839    -0.60300
O1921       O  0.93531518  0.54036555  0.04187303    -0.52300
C1922       C  0.94228503  0.56367295  0.06276926     0.73100
O1923       O  0.54431174  0.56536980  0.06968055    -0.71700
O1924       O  0.57107887  0.53447290  0.03784752    -0.50400
C1925       C  0.56561140  0.55712584  0.06074094     0.74500
O1926       O  0.96124436  0.56634183  0.42868505    -0.67100
O1927       O  0.93377357  0.53800380  0.46236533    -0.54300
C1928       C  0.93971644  0.55974552  0.43838581     0.72900
Zr1929     Zr  0.50118855  0.54653606  0.44099330     2.77500
O1930       O  0.50102181  0.60391781  0.43286661    -0.97800
O1931       O  0.49896756  0.53703826  0.37260559    -0.78600
Zr1932     Zr  0.50366345  0.54858260  0.05610471     2.70100
O1933       O  0.50677275  0.60582830  0.06315291    -0.79900
O1934       O  0.50315116  0.54282025  0.12517226    -0.99000
Zr1935     Zr  0.95619749  0.50326178  0.00124210     2.21500
Zr1936     Zr  0.54774414  0.00112060  0.49807152     2.11100
O1937       O  0.52503688  0.54835774  0.99784100    -2.47700
O1938       O  0.97974697  0.55009607  0.99812919    -0.79700
O1939       O  0.52433576  0.99962070  0.44135931    -0.71900
O1940       O  0.97957064  0.50383646  0.05807880    -2.32800
O1941       O  0.97762340  0.50057154  0.44369439    -2.29000
O1942       O  0.52684401  0.00354300  0.05692618    -0.73600
H1943       H  0.53384605  0.93605729  0.99948419     0.78400
H1944       H  0.96963078  0.50464677  0.08050230     0.79500
H1945       H  0.53516434  0.56843969  0.49457231     0.81700
H1946       H  0.96670026  0.50001662  0.42244746     0.79300
H1947       H  0.98876078  0.95892114  0.13544521     0.42300
H1948       H  0.51885803  0.53363386  0.13146601     0.41300
H1949       H  0.00174174  0.61415076  0.02884708     0.41000
H1950       H  0.51328649  0.61184242  0.45078942     0.38900
H1951       H  0.51347710  0.52474996  0.36662477     0.42000
H1952       H  0.98663296  0.96673860  0.36879556     0.36800
H1953       H  0.00114565  0.89210045  0.48008220     0.42900
H1954       H  0.51028317  0.89055404  0.04970209     0.39400
H1955       H  0.50783952  0.60757202  0.40719761     0.44300
H1956       H  0.98873685  0.92977101  0.37139660     0.43000
H1957       H  0.01254428  0.89487584  0.09126205     0.43100
H1958       H  0.50398886  0.56482045  0.13494287     0.43500
O1959       O  0.79287819  0.81677965  0.17829537    -0.75400
O1960       O  0.82028431  0.78898728  0.21264609    -0.54300
C1961       C  0.81439110  0.81058029  0.18853944     0.78300
O1962       O  0.71012482  0.81431944  0.32351440    -0.60000
O1963       O  0.68284776  0.78581699  0.28990296    -0.53000
C1964       C  0.68861964  0.80672823  0.31503835     0.70400
O1965       O  0.78948713  0.81923070  0.32248039    -0.74500
O1966       O  0.81814344  0.78961252  0.29339517    -0.55100
C1967       C  0.81127013  0.81238325  0.31523646     0.76400
O1968       O  0.71286394  0.81441982  0.17201774    -0.59700
O1969       O  0.68453407  0.78745107  0.20568777    -0.52800
C1970       C  0.69111407  0.80793474  0.18050428     0.73000
Zr1971     Zr  0.75253833  0.79834233  0.19227525     2.54700
O1972       O  0.75258981  0.85599950  0.18962187    -0.80300
O1973       O  0.75404727  0.79385884  0.12306636    -0.93700
Zr1974     Zr  0.75033297  0.79948017  0.30556241     2.64700
O1975       O  0.74604627  0.85683748  0.30368550    -0.98600
O1976       O  0.75151972  0.79919893  0.37495770    -0.80700
O1977       O  0.77439372  0.79986668  0.25006135    -0.84000
O1978       O  0.72850758  0.79957695  0.24792294    -2.18800
O1979       O  0.71272995  0.68591759  0.17716835    -0.67400
O1980       O  0.68436532  0.71457130  0.20816441    -0.52000
C1981       C  0.69093528  0.69225495  0.18553654     0.71300
O1982       O  0.79096998  0.68887728  0.32625158    -0.60300
O1983       O  0.81905164  0.71773506  0.29457283    -0.52300
C1984       C  0.81270030  0.69642459  0.31884850     0.73100
O1985       O  0.71086356  0.68962335  0.32422752    -0.71700
O1986       O  0.68331662  0.71681471  0.28957598    -0.50400
C1987       C  0.68926804  0.69612450  0.31477808     0.74500
O1988       O  0.79289416  0.68720850  0.18006465    -0.67100
O1989       O  0.82041737  0.71757759  0.21089741    -0.54300
C1990       C  0.81446738  0.69530868  0.18757100     0.72900
Zr1991     Zr  0.75258127  0.70479220  0.19377051     2.77500
O1992       O  0.75435075  0.64718487  0.18975235    -0.97800
O1993       O  0.75337791  0.70981720  0.12457295    -0.78600
Zr1994     Zr  0.75116645  0.70569154  0.30708283     2.70100
O1995       O  0.75102713  0.64794877  0.30609813    -0.79900
O1996       O  0.75112491  0.70875565  0.37639474    -0.99000
Zr1997     Zr  0.79745236  0.75261980  0.25179476     2.21500
Zr1998     Zr  0.70587632  0.75175775  0.24814287     2.11100
O1999       O  0.72898050  0.70440087  0.24970141    -2.47700
O2000       O  0.77487571  0.70482069  0.25127093    -0.79700
O2001       O  0.72910095  0.75138940  0.19115290    -0.71900
O2002       O  0.77393860  0.75298598  0.30841762    -2.32800
O2003       O  0.77593756  0.75171194  0.19303328    -2.29000
O2004       O  0.72751330  0.75224680  0.30659405    -0.73600
H2005       H  0.71829170  0.81794658  0.24738720     0.78400
H2006       H  0.78382034  0.75345128  0.33094932     0.79500
H2007       H  0.71895001  0.68581798  0.24986393     0.81700
H2008       H  0.78660585  0.75156660  0.17146189     0.79300
H2009       H  0.74216107  0.78026129  0.38230368     0.42300
H2010       H  0.73620814  0.71997271  0.38281440     0.41300
H2011       H  0.74266529  0.64222386  0.28219953     0.41000
H2012       H  0.74174660  0.63957298  0.20722095     0.38900
H2013       H  0.74280563  0.69268832  0.11522852     0.42000
H2014       H  0.77040701  0.78665553  0.11735785     0.36800
H2015       H  0.74870796  0.86275375  0.21591996     0.42900
H2016       H  0.75736477  0.86392423  0.28384172     0.39400
H2017       H  0.74838666  0.64205298  0.16388719     0.44300
H2018       H  0.75358602  0.81604345  0.11386905     0.43000
H2019       H  0.75295446  0.86434995  0.32805007     0.43100
H2020       H  0.74837422  0.68665835  0.38485574     0.43500
C2021       C  0.60431721  0.62619181  0.09058820    -0.11500
C2022       C  0.62111356  0.61108701  0.11376945     0.15100
C2023       C  0.61994636  0.57789373  0.11885529     0.02000
C2024       C  0.60194762  0.56055742  0.10061777    -0.15800
C2025       C  0.58510773  0.57576362  0.07749181    -0.10600
C2026       C  0.58652944  0.60888737  0.07212073     0.08700
C2027       C  0.63940196  0.63094189  0.13232600     0.09700
S2028       S  0.64034927  0.55653651  0.14904162    -0.25000
H2029       H  0.60081501  0.53515512  0.10500696     0.20000
S2030       S  0.56659389  0.63022863  0.04114817    -0.30700
H2031       H  0.60529957  0.65163486  0.08646659     0.10300
C2032       C  0.65976090  0.64096468  0.11231813     0.03500
C2033       C  0.67611602  0.66119809  0.13024959    -0.13000
C2034       C  0.67237827  0.67205207  0.16771189    -0.08600
C2035       C  0.65180837  0.66178077  0.18759398     0.07000
C2036       C  0.63568616  0.64125346  0.16978090    -0.13700
S2037       S  0.66509713  0.62741613  0.06419419    -0.30600
H2038       H  0.69188300  0.66868618  0.11496109     0.11200
S2039       S  0.64581997  0.67231925  0.23636335    -0.27700
H2040       H  0.61998752  0.63344894  0.18509690     0.08400
H2041       H  0.56532984  0.60627020  0.01332487     0.26900
H2042       H  0.68529687  0.64627939  0.05723308     0.21700
H2043       H  0.64144711  0.70429326  0.22737932     0.27000
H2044       H  0.65994457  0.57670161  0.14335062     0.15800
C2045       C  0.62947924  0.66771951  0.35391947    -0.11500
C2046       C  0.63508489  0.63642667  0.36393208     0.15100
C2047       C  0.65839821  0.62519283  0.35820446     0.02000
C2048       C  0.67563325  0.64553770  0.34322065    -0.15800
C2049       C  0.67024552  0.67700023  0.33313192    -0.10600
C2050       C  0.64681306  0.68826939  0.33918165     0.08700
C2051       C  0.61648568  0.61622381  0.38118031     0.09700
S2052       S  0.66736795  0.58513028  0.36917423    -0.25000
H2053       H  0.69335001  0.63629487  0.33845739     0.20000
S2054       S  0.63809176  0.72879171  0.33077187    -0.30700
H2055       H  0.61161386  0.67645269  0.35868592     0.10300
C2056       C  0.61672901  0.60882617  0.42038714     0.03500
C2057       C  0.59941683  0.58830981  0.43514810    -0.13000
C2058       C  0.58172885  0.57521702  0.41158663    -0.08600
C2059       C  0.58170797  0.58245895  0.37221804     0.07000
C2060       C  0.59888125  0.60319087  0.35755217    -0.13700
S2061       S  0.63868370  0.62613834  0.45181415    -0.30600
H2062       H  0.59923971  0.58309933  0.46540664     0.11200
S2063       S  0.56101175  0.56493598  0.33904517    -0.27700
H2064       H  0.59894823  0.60854344  0.32730902     0.08400
H2065       H  0.65947263  0.74193667  0.34448312     0.26900
H2066       H  0.63050764  0.61199227  0.48573545     0.21700
H2067       H  0.55974578  0.53552758  0.35788520     0.27000
H2068       H  0.64506914  0.57075974  0.36364270     0.15800
C2069       C  0.65580887  0.85206097  0.10463312    -0.11500
C2070       C  0.63789440  0.86592303  0.12684207     0.15100
C2071       C  0.63687684  0.85933583  0.16633394     0.02000
C2072       C  0.65410045  0.83972644  0.18281585    -0.15800
C2073       C  0.67240196  0.82641337  0.16085603    -0.10600
C2074       C  0.67305401  0.83232764  0.12116271     0.08700
C2075       C  0.62026276  0.88658825  0.10783393     0.09700
S2076       S  0.61460140  0.87581064  0.19764110    -0.25000
H2077       H  0.65353353  0.83541858  0.21328766     0.20000
S2078       S  0.69517275  0.81389563  0.09111310    -0.30700
H2079       H  0.65626668  0.85688098  0.07429710     0.10300
C2080       C  0.62185497  0.91993062  0.10949652     0.03500
C2081       C  0.60382172  0.93841479  0.09291689    -0.13000
C2082       C  0.58435277  0.92409225  0.07456655    -0.08600
C2083       C  0.58364086  0.89071513  0.07112423     0.07000
C2084       C  0.60137074  0.87236097  0.08816517    -0.13700
S2085       S  0.64684705  0.93878981  0.13265259    -0.30600
H2086       H  0.60461458  0.96402321  0.09482172     0.11200
S2087       S  0.56115660  0.87026370  0.04393583    -0.27700
H2088       H  0.60046175  0.84674628  0.08608661     0.08400
H2089       H  0.68514928  0.82286108  0.05596552     0.26900
H2090       H  0.63937881  0.97022435  0.12677877     0.21700
H2091       H  0.56041707  0.89294485  0.01456499     0.27000
H2092       H  0.59705276  0.88153640  0.17003055     0.15800
C2093       C  0.84827679  0.64416626  0.11628185    -0.11500
C2094       C  0.86959622  0.63894002  0.13582905     0.15100
C2095       C  0.87330454  0.65358474  0.17155080     0.02000
C2096       C  0.85539570  0.67258639  0.18729473    -0.15800
C2097       C  0.83367627  0.67729518  0.16819074    -0.10600
C2098       C  0.83050504  0.66343065  0.13162738     0.08700
C2099       C  0.88802151  0.61935344  0.11718418     0.09700
S2100       S  0.90043102  0.64884937  0.19839135    -0.25000
H2101       H  0.85825660  0.68309644  0.21513414     0.20000
S2102       S  0.80486956  0.67051955  0.10194191    -0.30700
H2103       H  0.84568864  0.63362972  0.08836885     0.10300
C2104       C  0.88590745  0.58611016  0.11508760     0.03500
C2105       C  0.90377867  0.56849916  0.09697833    -0.13000
C2106       C  0.92371881  0.58349302  0.08083524    -0.08600
C2107       C  0.92538835  0.61695782  0.08200097     0.05200
C2108       C  0.90762317  0.63446345  0.10050064    -0.13700
S2109       S  0.86067095  0.56612619  0.13612487    -0.30600
H2110       H  0.90238833  0.54290621  0.09575637     0.11200
S2111       S  0.94913906  0.63774653  0.05783945    -0.27700
H2112       H  0.90875530  0.66007864  0.10165596     0.08400
H2113       H  0.80337623  0.70293121  0.11118995     0.26900
H2114       H  0.86849270  0.53499532  0.12918951     0.21700
H2115       H  0.94125623  0.66869575  0.06568089     0.27000
H2116       H  0.90594051  0.61830207  0.18510567     0.15800
C2117       C  0.87954775  0.90068254  0.42455133    -0.11500
C2118       C  0.88353758  0.88849073  0.38794228     0.15100
C2119       C  0.90477082  0.89604782  0.36862406     0.02000
C2120       C  0.92182823  0.91491916  0.38668906    -0.15800
C2121       C  0.91809765  0.92711598  0.42357367    -0.10600
C2122       C  0.89650496  0.91988722  0.44254325     0.08700
C2123       C  0.86507141  0.86837969  0.37032327     0.09700
S2124       S  0.91126182  0.88198454  0.32113658    -0.25000
H2125       H  0.93816080  0.92028466  0.37158100     0.20000
S2126       S  0.89028815  0.93216639  0.49064076    -0.30700
H2127       H  0.86320590  0.89483252  0.43939182     0.10300
C2128       C  0.86778194  0.83531514  0.36678142     0.03500
C2129       C  0.85009081  0.81757985  0.34825063    -0.13000
C2130       C  0.82970797  0.83229149  0.33340539    -0.08600
C2131       C  0.82728683  0.86561437  0.33682658     0.07000
C2132       C  0.84477454  0.88309177  0.35572833    -0.13700
S2133       S  0.89352465  0.81571378  0.38646482    -0.30600
H2134       H  0.85194841  0.79211706  0.34578322     0.11200
S2135       S  0.80318640  0.88779181  0.31605498    -0.27700
H2136       H  0.84293674  0.90860091  0.35806207     0.08400
H2137       H  0.88837002  0.96429959  0.48035633     0.26900
H2138       H  0.88696801  0.78465394  0.37617053     0.21700
H2139       H  0.80131637  0.86898873  0.28308383     0.27000
H2140       H  0.88769364  0.88266649  0.30779872     0.15800
C2141       C  0.88144318  0.58758870  0.39380082    -0.11500
C2142       C  0.88586122  0.62020533  0.39009497     0.15100
C2143       C  0.90779071  0.63269203  0.40274212     0.02000
C2144       C  0.92504885  0.61226311  0.41749910    -0.15800
C2145       C  0.92077072  0.57954528  0.42121650    -0.10600
C2146       C  0.89865108  0.56712273  0.40895238     0.08700
C2147       C  0.86755581  0.64042150  0.37193168     0.09700
S2148       S  0.91471057  0.67447788  0.40134439    -0.25000
H2149       H  0.94179314  0.62219656  0.42718328     0.20000
S2150       S  0.89171147  0.52537250  0.41006361    -0.30700
H2151       H  0.86465577  0.57791050  0.38395236     0.10300
C2152       C  0.87047908  0.65234077  0.33469588     0.03500
C2153       C  0.85267044  0.67135066  0.31857314    -0.13000
C2154       C  0.83181955  0.67870171  0.33885148    -0.08600
C2155       C  0.82937310  0.66743219  0.37675872     0.07000
C2156       C  0.84702921  0.64807842  0.39253343    -0.13700
S2157       S  0.89628736  0.64202925  0.30682177    -0.30600
H2158       H  0.85462918  0.67948455  0.28944856     0.11200
S2159       S  0.80480621  0.67790448  0.40722353    -0.27700
H2160       H  0.84499694  0.63939958  0.42145104     0.08400
H2161       H  0.91469729  0.51533573  0.39988927     0.26900
H2162       H  0.89363892  0.66651806  0.27995260     0.21700
H2163       H  0.80301774  0.70919505  0.39361300     0.27000
H2164       H  0.89127250  0.68518042  0.40642517     0.15800
C2165       C  0.61786122  0.91374790  0.38593969    -0.11500
C2166       C  0.61414905  0.88086319  0.38513488     0.15100
C2167       C  0.59309071  0.86808345  0.40078056     0.02000
C2168       C  0.57594963  0.88853926  0.41584591    -0.15800
C2169       C  0.57955661  0.92152375  0.41657950    -0.10600
C2170       C  0.60075964  0.93421061  0.40113572     0.08700
C2171       C  0.63254749  0.86071511  0.36743096     0.09700
S2172       S  0.58709104  0.82602980  0.40278915    -0.25000
H2173       H  0.55988673  0.87853177  0.42803106     0.20000
S2174       S  0.60656168  0.97622163  0.39829240    -0.30700
H2175       H  0.63400426  0.92357986  0.37382429     0.10300
C2176       C  0.62932880  0.84701469  0.33116965     0.03500
C2177       C  0.64766496  0.82889430  0.31516869    -0.13000
C2178       C  0.66920913  0.82407943  0.33474168    -0.08600
C2179       C  0.67196938  0.83706624  0.37185276     0.07000
C2180       C  0.65369391  0.85550197  0.38743966    -0.13700
S2181       S  0.60219944  0.85348733  0.30473642    -0.30600
H2182       H  0.64543301  0.81916619  0.28680935     0.11200
S2183       S  0.69808587  0.82949445  0.40059006    -0.27700
H2184       H  0.65571325  0.86584509  0.41553342     0.08400
H2185       H  0.58290721  0.98461482  0.39006137     0.26900
H2186       H  0.60722966  0.83235019  0.27477207     0.21700
H2187       H  0.69094580  0.84633115  0.43325672     0.27000
H2188       H  0.61085231  0.81581599  0.40287389     0.15800
C2189       C  0.90604762  0.87162116  0.09744940    -0.11500
C2190       C  0.88739429  0.88649858  0.11685344     0.15100
C2191       C  0.88684369  0.91988903  0.11927891     0.02000
C2192       C  0.90491438  0.93769327  0.10214414    -0.15800
C2193       C  0.92354855  0.92286413  0.08250346    -0.10600
C2194       C  0.92396175  0.88939577  0.07988440     0.08700
C2195       C  0.86891847  0.86651620  0.13463587     0.09700
S2196       S  0.86389294  0.94106430  0.14447438    -0.25000
H2197       H  0.90450174  0.96332624  0.10431532     0.20000
S2198       S  0.94609748  0.86802103  0.05304952    -0.30700
H2199       H  0.90637659  0.84598249  0.09539134     0.10300
C2200       C  0.84946082  0.85502917  0.11343459     0.03500
C2201       C  0.83192159  0.83688368  0.13175635    -0.13000
C2202       C  0.83358725  0.82971331  0.17084000    -0.08600
C2203       C  0.85335037  0.84126121  0.19180107     0.07000
C2204       C  0.87080552  0.85928733  0.17343608    -0.13700
S2205       S  0.84689700  0.86389143  0.06318757    -0.30600
H2206       H  0.81693500  0.82799314  0.11552761     0.11200
S2207       S  0.85670088  0.83565112  0.24235596    -0.27700
H2208       H  0.88575024  0.86836961  0.18968362     0.08400
H2209       H  0.94807295  0.89066976  0.02375441     0.26900
H2210       H  0.82451808  0.84963674  0.05769253     0.21700
H2211       H  0.83262475  0.84173699  0.24980659     0.27000
H2212       H  0.84535578  0.91998297  0.13540588     0.15800
O2213       O  0.96032479  0.93592830  0.93188961    -0.75400
O2214       O  0.93325044  0.96616308  0.96372538    -0.54300
C2215       C  0.93891103  0.94345876  0.94104549     0.78300
O2216       O  0.54299896  0.93758036  0.57161314    -0.60000
O2217       O  0.57069015  0.96587205  0.53820818    -0.53000
C2218       C  0.56453989  0.94376681  0.56145076     0.70400
O2219       O  0.96269176  0.93653834  0.57002578    -0.74500
O2220       O  0.93468417  0.96906183  0.54397530    -0.55100
C2221       C  0.94104916  0.94472501  0.56339638     0.76400
O2222       O  0.53908363  0.93728765  0.92444350    -0.59700
O2223       O  0.56795841  0.96548421  0.95521460    -0.52800
C2224       C  0.56097476  0.94393446  0.93170549     0.73000
Zr2225     Zr  0.00070963  0.95428324  0.94384102     2.54700
O2226       O  0.00108489  0.89662441  0.94112598    -0.80300
O2227       O  0.49684833  0.95557326  0.87569147    -0.93700
Zr2228     Zr  0.00267406  0.95730926  0.55933150     2.64700
O2229       O  0.99971904  0.90231024  0.58013623    -0.98600
O2230       O  0.50307428  0.96848661  0.62824430    -0.80700
O2231       O  0.97938946  0.95460961  0.00209231    -0.84000
O2232       O  0.52404263  0.95475656  0.00018630    -2.18800
O2233       O  0.54078028  0.56363716  0.92205007    -0.67400
O2234       O  0.56877495  0.53560846  0.95497690    -0.52000
C2235       C  0.56244873  0.55666233  0.93045519     0.71300
O2236       O  0.96495238  0.57225649  0.56875697    -0.60300
O2237       O  0.93613850  0.54083697  0.54262391    -0.52300
C2238       C  0.94306746  0.56476716  0.56252747     0.73100
O2239       O  0.54382294  0.57103458  0.56655149    -0.71700
O2240       O  0.57077429  0.53877183  0.53715557    -0.50400
C2241       C  0.56516637  0.56255520  0.55818896     0.74500
O2242       O  0.96145771  0.56608227  0.92638193    -0.67100
O2243       O  0.93367647  0.53844088  0.96028925    -0.54300
C2244       C  0.93984034  0.55964710  0.93583034     0.72900
Zr2245     Zr  0.50094906  0.54765943  0.94236385     2.77500
O2246       O  0.50094627  0.60537400  0.94043012    -0.97800
O2247       O  0.49871578  0.54336366  0.87319321    -0.78600
Zr2248     Zr  0.50343635  0.55237543  0.55455436     2.70100
O2249       O  0.50511344  0.60994570  0.55852696    -0.79900
O2250       O  0.50251696  0.54922542  0.62386762    -0.99000
Zr2251     Zr  0.95684870  0.50287691  0.50296365     2.21500
Zr2252     Zr  0.54729100  0.00187838  0.99738330     2.11100
O2253       O  0.52501359  0.54999498  0.49653804    -2.47700
O2254       O  0.98014600  0.54985130  0.49925449    -0.79700
O2255       O  0.52373580  0.00129226  0.94087035    -0.71900
O2256       O  0.98043758  0.50448578  0.55966804    -2.32800
O2257       O  0.97739603  0.50114244  0.94234813    -2.29000
O2258       O  0.52705022  0.00408418  0.55734056    -0.73600
H2259       H  0.53364411  0.93551528  0.50175626     0.78400
H2260       H  0.97056869  0.50541544  0.58218229     0.79500
H2261       H  0.53536422  0.56661529  0.99693198     0.81700
H2262       H  0.96657043  0.50087924  0.92095975     0.79300
H2263       H  0.98695124  0.97082397  0.63490409     0.42300
H2264       H  0.51908598  0.54421401  0.63123971     0.41300
H2265       H  0.00712642  0.61544882  0.53188354     0.41000
H2266       H  0.51523147  0.61183306  0.95503754     0.38900
H2267       H  0.50700129  0.52329440  0.86716655     0.42000
H2268       H  0.98165693  0.96434561  0.86926397     0.36800
H2269       H  0.00899971  0.89006415  0.96508743     0.42900
H2270       H  0.51068511  0.89134634  0.55284708     0.39400
H2271       H  0.50473804  0.61071194  0.91360400     0.44300
H2272       H  0.99980460  0.93643935  0.86545112     0.43000
H2273       H  0.01139126  0.89993672  0.60109243     0.43100
H2274       H  0.50017689  0.57139996  0.63232381     0.43500
O2275       O  0.79260006  0.81794564  0.67700676    -0.75400
O2276       O  0.82020938  0.78989461  0.71062505    -0.54300
C2277       C  0.81417891  0.81140205  0.68645385     0.78300
O2278       O  0.71069241  0.81472552  0.82462648    -0.60000
O2279       O  0.68346618  0.78668673  0.79021495    -0.53000
C2280       C  0.68915841  0.80746891  0.81555338     0.70400
O2281       O  0.79061298  0.81929836  0.82167566    -0.74500
O2282       O  0.81901753  0.78934968  0.79240693    -0.55100
C2283       C  0.81235843  0.81213554  0.81432837     0.76400
O2284       O  0.71265069  0.81502897  0.67315445    -0.59700
O2285       O  0.68455962  0.78716150  0.70623105    -0.52800
C2286       C  0.69096607  0.80794426  0.68134501     0.73000
Zr2287     Zr  0.75254998  0.79980637  0.69300640     2.54700
O2288       O  0.75126769  0.85749694  0.69354142    -0.80300
O2289       O  0.75448317  0.79631923  0.62371320    -0.93700
Zr2290     Zr  0.75103686  0.79958149  0.80643020     2.64700
O2291       O  0.74646100  0.85691431  0.80847485    -0.98600
O2292       O  0.75345322  0.79500135  0.87556116    -0.80700
O2293       O  0.77478144  0.80068549  0.75042035    -0.84000
O2294       O  0.72892183  0.80006272  0.74904404    -2.18800
O2295       O  0.71301077  0.68886171  0.67420252    -0.67400
O2296       O  0.68486202  0.71637426  0.70720463    -0.52000
C2297       C  0.69131909  0.69513197  0.68309798     0.71300
O2298       O  0.79137455  0.68807054  0.82320027    -0.60300
O2299       O  0.81943385  0.71711403  0.79161299    -0.52300
C2300       C  0.81306260  0.69538513  0.81533168     0.73100
O2301       O  0.71155895  0.68913026  0.82370161    -0.71700
O2302       O  0.68390955  0.71651595  0.78961956    -0.50400
C2303       C  0.68989739  0.69556364  0.81450815     0.74500
O2304       O  0.79292621  0.68834805  0.67865273    -0.67100
O2305       O  0.82060750  0.71881816  0.70883492    -0.54300
C2306       C  0.81455590  0.69640299  0.68578349     0.72900
Zr2307     Zr  0.75274282  0.70632485  0.69272777     2.77500
O2308       O  0.75343497  0.64874399  0.68778270    -0.97800
O2309       O  0.75379527  0.71293069  0.62373590    -0.78600
Zr2310     Zr  0.75165124  0.70625756  0.80641158     2.70100
O2311       O  0.75145960  0.64865227  0.81016558    -0.79900
O2312       O  0.75226836  0.71410762  0.87519975    -0.99000
Zr2313     Zr  0.79783799  0.75338394  0.75054679     2.21500
Zr2314     Zr  0.70628871  0.75225689  0.74868651     2.11100
O2315       O  0.72941151  0.70498738  0.74903557    -2.47700
O2316       O  0.77503722  0.70582188  0.75010255    -0.79700
O2317       O  0.72923120  0.75284731  0.69152916    -0.71900
O2318       O  0.77478399  0.75320429  0.80766782    -2.32800
O2319       O  0.77598299  0.75321701  0.69236088    -2.29000
O2320       O  0.72791909  0.75256834  0.80696371    -0.73600
H2321       H  0.71865672  0.81838448  0.74885651     0.78400
H2322       H  0.78490137  0.75335347  0.82994881     0.79500
H2323       H  0.71942484  0.68635610  0.74888947     0.81700
H2324       H  0.78653387  0.75325484  0.67064535     0.79300
H2325       H  0.75549387  0.81706883  0.88464797     0.42300
H2326       H  0.73861310  0.72824956  0.88041063     0.41300
H2327       H  0.75516948  0.64160586  0.78388485     0.41000
H2328       H  0.74131889  0.64133955  0.70624830     0.38900
H2329       H  0.73834749  0.72277911  0.61725374     0.42000
H2330       H  0.76935488  0.78466600  0.61814992     0.36800
H2331       H  0.76357520  0.86384030  0.71228071     0.42900
H2332       H  0.75662661  0.86491482  0.78753676     0.39400
H2333       H  0.74653718  0.64399454  0.66241262     0.44300
H2334       H  0.75774749  0.81827531  0.61521350     0.43000
H2335       H  0.75458112  0.86362673  0.83221120     0.43100
H2336       H  0.74743585  0.69335426  0.88587218     0.43500
C2337       C  0.60346955  0.63242807  0.58670921    -0.11500
C2338       C  0.62120335  0.61731514  0.60802559     0.15100
C2339       C  0.62089697  0.58397970  0.61181688     0.02000
C2340       C  0.60260956  0.56656758  0.59467043    -0.15800
C2341       C  0.58467987  0.58174456  0.57378824    -0.10600
C2342       C  0.58540967  0.61498270  0.56915133     0.08700
C2343       C  0.63927886  0.63722513  0.62681203     0.09700
S2344       S  0.64285406  0.56230943  0.63874845    -0.25000
H2345       H  0.60212818  0.54103369  0.59817550     0.20000
S2346       S  0.56434941  0.63627205  0.54011253    -0.30700
H2347       H  0.60383601  0.65799153  0.58353022     0.10300
C2348       C  0.65827098  0.65053633  0.60610510     0.03500
C2349       C  0.67495781  0.66956105  0.62510701    -0.13000
C2350       C  0.67262690  0.67618036  0.66421050    -0.08600
C2351       C  0.65326031  0.66307669  0.68461595     0.07000
C2352       C  0.63696788  0.64353082  0.66581020    -0.13700
S2353       S  0.66150220  0.64266278  0.55572990    -0.30600
H2354       H  0.68986883  0.67937125  0.60949110     0.11200
S2355       S  0.64931398  0.66857506  0.73508673    -0.27700
H2356       H  0.62230468  0.63322826  0.68163149     0.08400
H2357       H  0.56270615  0.61269620  0.51184200     0.26900
H2358       H  0.68013222  0.66430578  0.54923085     0.21700
H2359       H  0.64389617  0.70098215  0.73131571     0.27000
H2360       H  0.66147108  0.58428444  0.63456744     0.15800
C2361       C  0.62989537  0.66595354  0.85233225    -0.11500
C2362       C  0.63590361  0.63525990  0.86419563     0.15100
C2363       C  0.65951460  0.62468402  0.85977327     0.02000
C2364       C  0.67666649  0.64525681  0.84479780    -0.15800
C2365       C  0.67086699  0.67619087  0.83288961    -0.10600
C2366       C  0.64702698  0.68660578  0.83718734     0.08700
C2367       C  0.61723851  0.61502552  0.88152827     0.09700
S2368       S  0.66880357  0.58495705  0.87168939    -0.25000
H2369       H  0.69462327  0.63648084  0.84123947     0.20000
S2370       S  0.63728237  0.72611881  0.82552664    -0.30700
H2371       H  0.61176969  0.67415642  0.85577970     0.10300
C2372       C  0.61740934  0.60747328  0.92072577     0.03500
C2373       C  0.59969810  0.58752069  0.93552765    -0.13000
C2374       C  0.58153979  0.57536532  0.91214814    -0.08600
C2375       C  0.58137894  0.58313443  0.87289972     0.07000
C2376       C  0.59909282  0.60302526  0.85814386    -0.13700
S2377       S  0.63953108  0.62429762  0.95224883    -0.30600
H2378       H  0.59955414  0.58208790  0.96572726     0.11200
S2379       S  0.55961771  0.56770966  0.83993931    -0.27700
H2380       H  0.59900478  0.60877091  0.82800735     0.08400
H2381       H  0.65752809  0.74101964  0.84094832     0.26900
H2382       H  0.63183607  0.60906410  0.98577139     0.21700
H2383       H  0.55713185  0.53816219  0.85811742     0.27000
H2384       H  0.64688843  0.57017309  0.86402298     0.15800
C2385       C  0.65588990  0.85364967  0.60666127    -0.11500
C2386       C  0.63690305  0.86487625  0.62869119     0.15100
C2387       C  0.63509084  0.85590207  0.66730739     0.02000
C2388       C  0.65268065  0.83679645  0.68350230    -0.15800
C2389       C  0.67206813  0.82609492  0.66184156    -0.10600
C2390       C  0.67348510  0.83424833  0.62275118     0.08700
C2391       C  0.61908406  0.88570509  0.61057745     0.09700
S2392       S  0.61106721  0.86885016  0.69747392    -0.25000
H2393       H  0.65144689  0.83073400  0.71347609     0.20000
S2394       S  0.69711497  0.81929344  0.59282170    -0.30700
H2395       H  0.65693538  0.86034965  0.57688866     0.10300
C2396       C  0.61956177  0.91887686  0.61553676     0.03500
C2397       C  0.60180682  0.93751922  0.59854520    -0.13000
C2398       C  0.58352160  0.92350174  0.57707671    -0.08600
C2399       C  0.58350616  0.89030022  0.57147944     0.07000
C2400       C  0.60119759  0.87179847  0.58835551    -0.13700
S2401       S  0.64268557  0.93733875  0.64364018    -0.30600
H2402       H  0.60183155  0.96297569  0.60259823     0.11200
S2403       S  0.56181334  0.87024554  0.54228552    -0.27700
H2404       H  0.60101280  0.84632315  0.58424257     0.08400
H2405       H  0.68807453  0.83054102  0.55795493     0.26900
H2406       H  0.63550411  0.96886622  0.63754462     0.21700
H2407       H  0.56108877  0.89394472  0.51415508     0.27000
H2408       H  0.59341932  0.86764854  0.66911228     0.15800
C2409       C  0.84802514  0.64254890  0.61672792    -0.11500
C2410       C  0.87002435  0.63971876  0.63505256     0.15100
C2411       C  0.87415673  0.65664328  0.66914363     0.02000
C2412       C  0.85605363  0.67548573  0.68456471    -0.15800
C2413       C  0.83373604  0.67804482  0.66661810    -0.10600
C2414       C  0.83009286  0.66185786  0.63154857     0.08700
C2415       C  0.88866710  0.62029037  0.61664302     0.09700
S2416       S  0.90215803  0.65522022  0.69414442    -0.25000
H2417       H  0.85934937  0.68775978  0.71120819     0.20000
S2418       S  0.80372999  0.66621497  0.60275289    -0.30700
H2419       H  0.84507777  0.63030434  0.58993500     0.10300
C2420       C  0.88719977  0.58694365  0.61597169     0.03500
C2421       C  0.90505200  0.56948010  0.59770987    -0.13000
C2422       C  0.92444801  0.58464325  0.58023463    -0.08600
C2423       C  0.92562934  0.61814839  0.58022518     0.05200
C2424       C  0.90776864  0.63557930  0.59864488    -0.13700
S2425       S  0.86297150  0.56656732  0.63936806    -0.30600
H2426       H  0.90415575  0.54383065  0.59760989     0.11200
S2427       S  0.94888204  0.63894863  0.55483387    -0.27700
H2428       H  0.90842634  0.66123967  0.59871299     0.08400
H2429       H  0.80237207  0.69923267  0.60818777     0.26900
H2430       H  0.87049101  0.53551657  0.63110950     0.21700
H2431       H  0.94131435  0.66987858  0.56356825     0.27000
H2432       H  0.90813481  0.62411678  0.68350491     0.15800
C2433       C  0.88309177  0.89409389  0.92560765    -0.11500
C2434       C  0.88567276  0.88591534  0.88713878     0.15100
C2435       C  0.90526024  0.89747219  0.86623372     0.02000
C2436       C  0.92223026  0.91626253  0.88461515    -0.15800
C2437       C  0.91971865  0.92468981  0.92319589    -0.10600
C2438       C  0.89975531  0.91353621  0.94375595     0.08700
C2439       C  0.86710916  0.86635307  0.86924330     0.09700
S2440       S  0.90973756  0.88886059  0.81630433    -0.25000
H2441       H  0.93741923  0.92472012  0.86849312     0.20000
S2442       S  0.89537513  0.92143544  0.99362580    -0.30700
H2443       H  0.86795936  0.88524990  0.94157093     0.10300
C2444       C  0.86983911  0.83348467  0.86404115     0.03500
C2445       C  0.85175965  0.81630100  0.84575282    -0.13000
C2446       C  0.83108355  0.83146907  0.83258582    -0.08600
C2447       C  0.82873145  0.86463609  0.83762178     0.07000
C2448       C  0.84653116  0.88148936  0.85648641    -0.13700
S2449       S  0.89610803  0.81349526  0.88122395    -0.30600
H2450       H  0.85357845  0.79092961  0.84209710     0.11200
S2451       S  0.80432153  0.88744030  0.81893302    -0.27700
H2452       H  0.84472011  0.90689211  0.86018867     0.08400
H2453       H  0.89151851  0.95399143  0.98760994     0.26900
H2454       H  0.89007782  0.78311114  0.86769100     0.21700
H2455       H  0.80245761  0.87018066  0.78473441     0.27000
H2456       H  0.88559055  0.88722670  0.80619572     0.15800
C2457       C  0.88178808  0.58597759  0.88951174    -0.11500
C2458       C  0.88604773  0.61855144  0.88517271     0.15100
C2459       C  0.90779507  0.63152324  0.89786521     0.02000
C2460       C  0.92507676  0.61157056  0.91339436    -0.15800
C2461       C  0.92096673  0.57889249  0.91776246    -0.10600
C2462       C  0.89898938  0.56598158  0.90547875     0.08700
C2463       C  0.86760266  0.63834953  0.86693371     0.09700
S2464       S  0.91445702  0.67333839  0.89540595    -0.25000
H2465       H  0.94170768  0.62183737  0.92308144     0.20000
S2466       S  0.89208620  0.52423712  0.90795151    -0.30700
H2467       H  0.86507603  0.57599664  0.87976254     0.10300
C2468       C  0.87011208  0.64948136  0.82927550     0.03500
C2469       C  0.85228200  0.66852159  0.81331932    -0.13000
C2470       C  0.83204417  0.67700547  0.83446096    -0.08600
C2471       C  0.83005357  0.66657978  0.87274906     0.07000
C2472       C  0.84756032  0.64689212  0.88820841    -0.13700
S2473       S  0.89562508  0.63872390  0.80100236    -0.30600
H2474       H  0.85385980  0.67614331  0.78392655     0.11200
S2475       S  0.80640537  0.67885760  0.90411328    -0.27700
H2476       H  0.84592106  0.63889850  0.91747683     0.08400
H2477       H  0.91521746  0.51392461  0.89917121     0.26900
H2478       H  0.89337558  0.66403635  0.77518540     0.21700
H2479       H  0.80507455  0.70991679  0.88960917     0.27000
H2480       H  0.89100351  0.68382215  0.90093754     0.15800
C2481       C  0.61819332  0.91563548  0.88462890    -0.11500
C2482       C  0.61381146  0.88292594  0.88197757     0.15100
C2483       C  0.59195720  0.87064879  0.89523840     0.02000
C2484       C  0.57485406  0.89133102  0.90993066    -0.15800
C2485       C  0.57921039  0.92408496  0.91288072    -0.10600
C2486       C  0.60113908  0.93634017  0.89964470     0.08700
C2487       C  0.63242842  0.86238543  0.86524810     0.09700
S2488       S  0.58494900  0.82886112  0.89506153    -0.25000
H2489       H  0.55825988  0.88154415  0.92043067     0.20000
S2490       S  0.60813108  0.97810265  0.89982616    -0.30700
H2491       H  0.63492991  0.92515626  0.87437392     0.10300
C2492       C  0.62989048  0.84874404  0.82880173     0.03500
C2493       C  0.64838764  0.83030373  0.81379218    -0.13000
C2494       C  0.66950546  0.82511522  0.83444197    -0.08600
C2495       C  0.67155849  0.83793757  0.87171964     0.07000
C2496       C  0.65310246  0.85667057  0.88639891    -0.13700
S2497       S  0.60352308  0.85584408  0.80070755    -0.30600
H2498       H  0.64665267  0.82071443  0.78528076     0.11200
S2499       S  0.69696277  0.82963673  0.90174076    -0.27700
H2500       H  0.65461575  0.86685237  0.91465727     0.08400
H2501       H  0.58489793  0.98807512  0.89107903     0.26900
H2502       H  0.60819219  0.83278517  0.77270863     0.21700
H2503       H  0.68922207  0.84624144  0.93423276     0.27000
H2504       H  0.60843352  0.81795108  0.89860801     0.15800
C2505       C  0.90416497  0.87289320  0.59025969    -0.11500
C2506       C  0.88589991  0.88709569  0.61136121     0.15100
C2507       C  0.88547270  0.92040821  0.61562038     0.02000
C2508       C  0.90358955  0.93866463  0.59936251    -0.15800
C2509       C  0.92210040  0.92444030  0.57886297    -0.10600
C2510       C  0.92209572  0.89122595  0.57357289     0.08700
C2511       C  0.86802820  0.86648841  0.62967199     0.09700
S2512       S  0.86277849  0.94116132  0.64208132    -0.25000
H2513       H  0.90341993  0.96417761  0.60314639     0.20000
S2514       S  0.94394827  0.87105910  0.54481721    -0.30700
H2515       H  0.90436239  0.84736930  0.58665510     0.10300
C2516       C  0.84835976  0.85468556  0.60925731     0.03500
C2517       C  0.83109587  0.83667588  0.62846266    -0.13000
C2518       C  0.83326346  0.82997401  0.66764144    -0.08600
C2519       C  0.85334611  0.84157298  0.68770178     0.07000
C2520       C  0.87049703  0.85949330  0.66847931    -0.13700
S2521       S  0.84495769  0.86348851  0.55910587    -0.30600
H2522       H  0.81581857  0.82778202  0.61294707     0.11200
S2523       S  0.85754992  0.83601427  0.73814903    -0.27700
H2524       H  0.88563513  0.86875844  0.68410328     0.08400
H2525       H  0.94599562  0.89524867  0.51735376     0.26900
H2526       H  0.82407472  0.84568191  0.55343932     0.21700
H2527       H  0.83365311  0.84224113  0.74699489     0.27000
H2528       H  0.84484938  0.91806642  0.63931305     0.15800
loop_ 
_geom_bond_atom_site_label_1 
_geom_bond_atom_site_label_2 
_geom_bond_distance 
_geom_bond_site_symmetry_2 
_ccdc_geom_bond_type 
O1          Zr13   2.432       .  S
O1            C3   1.287       .  A
O2         Zr987   2.424       .  S
O2            C3   1.285       .  A
C3          C225   1.482       .  S
O4        Zr1280   2.458       .  S
O4            C6   1.290       .  A
O5         Zr356   2.420   1_554  S
O5            C6   1.285       .  A
C6          C186   1.476       .  S
O7          Zr16   2.441       .  S
O7            C9   1.288       .  A
O8         Zr671   2.414       .  S
O8            C9   1.284       .  A
C9          C297   1.471       .  S
O10       Zr1277   2.440       .  S
O10          C12   1.288       .  A
O11         Zr40   2.425       .  S
O11          C12   1.286       .  A
C12         C273   1.480       .  S
Zr13       O1274   2.438       .  S
Zr13         O14   2.434       .  S
Zr13       O1279   2.434       .  S
Zr13         O19   2.366       .  S
Zr13       O1284   2.361       .  S
Zr13       O1307   2.373       .  S
Zr13        O677   2.373       .  S
O14          H57   0.991       .  S
O15       Zr1277   2.434   1_655  S
O15        H1320   0.990       .  S
O15        H1324   0.990   1_655  S
Zr16       O1268   2.455       .  S
Zr16         O17   2.436       .  S
Zr16       O1282   2.434       .  S
Zr16       O1600   2.368   1_554  S
Zr16        O335   2.371       .  S
Zr16        O676   2.376       .  S
Zr16       O1310   2.371       .  S
O17          H61   0.990       .  S
O17        H1322   0.990       .  S
O18       Zr1280   2.434       .  S
O18        H1315   0.990   1_455  S
O19        Zr332   2.373       .  S
O19        Zr987   2.375       .  S
O20         Zr40   2.384       .  S
O20       Zr1277   2.365       .  S
O20       Zr1596   2.372       .  S
O20         H363   0.964       .  S
O21         Zr33   2.445       .  S
O21          C23   1.288       .  A
O22        Zr672   2.421       .  S
O22          C23   1.286       .  A
C23         C162   1.475       .  S
O24       Zr1300   2.446       .  S
O24          C26   1.288       .  A
O25         Zr39   2.419       .  S
O25          C26   1.285       .  A
C26         C210   1.470       .  S
O27         Zr36   2.448       .  S
O27          C29   1.289       .  A
O28        Zr988   2.418   1_554  S
O28          C29   1.285       .  A
C29         C129   1.471       .  S
O30       Zr1297   2.437       .  S
O30          C32   1.288       .  A
O31        Zr355   2.418       .  S
O31          C32   1.285       .  A
C32         C249   1.475       .  S
Zr33       O1294   2.442   1_455  S
Zr33         O34   2.436       .  S
Zr33         O35   2.434       .  S
Zr33        O357   2.367       .  S
Zr33       O1622   2.369   1_455  S
Zr33       O1309   2.370   1_455  S
Zr33        O675   2.372   1_545  S
O34          H54   0.990       .  S
O34          H59   0.990       .  S
O35          H55   0.990       .  S
Zr36       O1288   2.447   1_455  S
Zr36         O37   2.433       .  S
Zr36         O38   2.435       .  S
Zr36         O41   2.369   1_554  S
Zr36       O1306   2.369   1_455  S
Zr36        O678   2.376       .  S
Zr36       O1308   2.375   1_455  S
O37        H1317   0.990       .  S
O38          H52   0.990       .  S
O38          H62   0.990   1_455  S
Zr39        O950   2.422   1_544  S
Zr39        O640   2.423   1_545  S
Zr39        O347   2.431   1_554  S
Zr39         O42   2.377       .  S
Zr39         O44   2.390       .  S
Zr39        O967   2.376   1_545  S
Zr39        O361   2.388   1_554  S
Zr40        O321   2.419       .  S
Zr40        O654   2.420       .  S
Zr40        O976   2.423       .  S
Zr40         O43   2.383       .  S
Zr40        O989   2.385       .  S
Zr40        O362   2.384       .  S
O41        Zr349   2.368       .  S
O41        Zr988   2.383       .  S
O41         H365   0.966       .  S
O42       Zr1613   2.370   1_554  S
O42       Zr1300   2.369       .  S
O43       Zr1277   2.370       .  S
O43        Zr665   2.375       .  S
O44        Zr648   2.378   1_545  S
O44       Zr1300   2.376       .  S
O44          H48   0.966       .  S
O45        Zr645   2.371   1_545  S
O45       Zr1297   2.371       .  S
O45        Zr355   2.387       .  S
O45          H50   0.965       .  S
O46       Zr1280   2.373       .  S
O46        Zr668   2.378       .  S
O46        Zr356   2.384   1_554  S
H47         O336   0.964       .  S
H49         O357   0.964       .  S
H51        O1282   0.990       .  S
H53        O1301   0.990       .  S
H56        O1279   0.990       .  S
H58        O1281   0.990   1_455  S
H60        O1279   0.990       .  S
O63         Zr75   2.439       .  S
O63          C65   1.288       .  A
O64        Zr101   2.427       .  S
O64          C65   1.287       .  A
C65         C306   1.480       .  S
O66         Zr78   2.435       .  S
O66          C68   1.286       .  A
O67        Zr102   2.420       .  S
O67          C68   1.286       .  A
C68         C282   1.483       .  S
O69         Zr78   2.436       .  S
O69          C71   1.286       .  A
O70        Zr101   2.426       .  S
O70          C71   1.287       .  A
C71         C234   1.478       .  S
O72         Zr75   2.440       .  S
O72          C74   1.287       .  A
O73        Zr102   2.436       .  S
O73          C74   1.289       .  A
C74         C177   1.484       .  S
Zr75         O76   2.433       .  S
Zr75         O77   2.436       .  S
Zr75         O81   2.373       .  S
Zr75         O82   2.371       .  S
Zr75        O105   2.371       .  S
Zr75        O107   2.370       .  S
O76         H119   0.990       .  S
O77         H118   0.990       .  S
O77         H122   0.990       .  S
Zr78         O79   2.434       .  S
Zr78         O80   2.434       .  S
Zr78         O82   2.371       .  S
Zr78         O81   2.372       .  S
Zr78        O106   2.368       .  S
Zr78        O108   2.364       .  S
O79         H120   0.989       .  S
O79         H123   0.990       .  S
O80         H113   0.990       .  S
O81        Zr101   2.380       .  S
O82        Zr102   2.382       .  S
O82         H109   0.966       .  S
O83         Zr95   2.450       .  S
O83          C85   1.290       .  A
O84        Zr102   2.420       .  S
O84          C85   1.285       .  A
C85         C138   1.483       .  S
O86         Zr98   2.434       .  S
O86          C88   1.287       .  A
O87        Zr101   2.429       .  S
O87          C88   1.288       .  A
C88         C258   1.481       .  S
O89         Zr98   2.427       .  S
O89          C91   1.286       .  A
O90        Zr102   2.427       .  S
O90          C91   1.287       .  A
C91         C153   1.480       .  S
O92         Zr95   2.448       .  S
O92          C94   1.290       .  A
O93        Zr101   2.424       .  S
O93          C94   1.287       .  A
C94         C201   1.486       .  S
Zr95         O96   2.436       .  S
Zr95         O97   2.434       .  S
Zr95        O103   2.369       .  S
Zr95        O104   2.372       .  S
Zr95        O107   2.372       .  S
Zr95        O105   2.375       .  S
O96         H116   0.990       .  S
O96         H121   0.990       .  S
O97         H117   0.990       .  S
Zr98         O99   2.434       .  S
Zr98        O100   2.435       .  S
Zr98        O104   2.369       .  S
Zr98        O103   2.369       .  S
Zr98        O108   2.369       .  S
Zr98        O106   2.367       .  S
O99         H115   0.990       .  S
O100        H114   0.990       .  S
O100        H124   0.990       .  S
Zr101       O104   2.378       .  S
Zr101       O106   2.382       .  S
Zr101       O107   2.387       .  S
Zr102       O103   2.386       .  S
Zr102       O105   2.382       .  S
Zr102       O108   2.379       .  S
O103        H111   0.965       .  S
O106        H110   0.966       .  S
O107        H112   0.966       .  S
C125        C126   1.401       .  A
C125        C130   1.397       .  A
C125        H135   1.084       .  S
C126        C131   1.478       .  S
C126        C127   1.414       .  A
C127        C128   1.401       .  A
C127        S132   1.804       .  S
C128        C129   1.403       .  A
C128        H133   1.084       .  S
C129        C130   1.411       .  A
C130        S134   1.802       .  S
C131        C136   1.408       .  A
C131        C140   1.400       .  A
S132        H148   1.405       .  S
S134        H145   1.406       .  S
C136        C137   1.403       .  A
C136        S141   1.806       .  S
C137        C138   1.406       .  A
C137        H142   1.083       .  S
C138        C139   1.417       .  A
C139        C140   1.399       .  A
C139        S143   1.800       .  S
C140        H144   1.084       .  S
S141        H146   1.407       .  S
S143        H147   1.408       .  S
C149        C150   1.403       .  A
C149        C154   1.402       .  A
C149        H159   1.084       .  S
C150        C155   1.477       .  S
C150        C151   1.410       .  A
C151        C152   1.395       .  A
C151        S156   1.806       .  S
C152        C153   1.406       .  A
C152        H157   1.084       .  S
C153        C154   1.415       .  A
C154        S158   1.804       .  S
C155        C160   1.408       .  A
C155        C164   1.402       .  A
S156        H172   1.404       .  S
S158        H169   1.408       .  S
C160        C161   1.402       .  A
C160        S165   1.806       .  S
C161        C162   1.405       .  A
C161        H166   1.083       .  S
C162        C163   1.414       .  A
C163        C164   1.400       .  A
C163        S167   1.803       .  S
C164        H168   1.084       .  S
S165        H170   1.407       .  S
S167        H171   1.407       .  S
C173        C174   1.401       .  A
C173        C178   1.404       .  A
C173        H183   1.083       .  S
C174        C179   1.481       .  S
C174        C175   1.411       .  A
C175        C176   1.401       .  A
C175        S180   1.803       .  S
C176        C177   1.405       .  A
C176        H181   1.084       .  S
C177        C178   1.416       .  A
C178        S182   1.807       .  S
C179        C184   1.410       .  A
C179        C188   1.401       .  A
S180        H196   1.405       .  S
S182        H193   1.407       .  S
C184        C185   1.405       .  A
C184        S189   1.806       .  S
C185        C186   1.404       .  A
C185        H190   1.083       .  S
C186        C187   1.414       .  A
C187        C188   1.399       .  A
C187        S191   1.802       .  S
C188        H192   1.084       .  S
S189        H194   1.407       .  S
S191        H195   1.406       .  S
C197        C198   1.399       .  A
C197        C202   1.398       .  A
C197        H207   1.084       .  S
C198        C203   1.480       .  S
C198        C199   1.412       .  A
C199        C200   1.402       .  A
C199        S204   1.805       .  S
C200        C201   1.408       .  A
C200        H205   1.083       .  S
C201        C202   1.417       .  A
C202        S206   1.802       .  S
C203        C208   1.411       .  A
C203        C212   1.403       .  A
S204        H220   1.405       .  S
S206        H217   1.408       .  S
C208        C209   1.402       .  A
C208        S213   1.806       .  S
C209        C210   1.401       .  A
C209        H214   1.083       .  S
C210        C211   1.410       .  A
C211        C212   1.403       .  A
C211        S215   1.807       .  S
C212        H216   1.083       .  S
S213        H218   1.407       .  S
S215        H219   1.407       .  S
C221        C222   1.400       .  A
C221        C226   1.398       .  A
C221        H231   1.084       .  S
C222        C227   1.473       .  S
C222        C223   1.409       .  A
C223        C224   1.396       .  A
C223        S228   1.805       .  S
C224        C225   1.407       .  A
C224        H229   1.084       .  S
C225        C226   1.417       .  A
C226        S230   1.799       .  S
C227        C232   1.408       .  A
C227        C236   1.397       .  A
S228        H244   1.405       .  S
S230        H241   1.407       .  S
C232        C233   1.403       .  A
C232        S237   1.806       .  S
C233        C234   1.407       .  A
C233        H238   1.083       .  S
C234        C235   1.418       .  A
C235        C236   1.394       .  A
C235        S239   1.802       .  S
C236        H240   1.084       .  S
S237        H242   1.407       .  S
S239        H243   1.405       .  S
C245        C246   1.402       .  A
C245        C250   1.399       .  A
C245        H255   1.084       .  S
C246        C251   1.476       .  S
C246        C247   1.411       .  A
C247        C248   1.396       .  A
C247        S252   1.804       .  S
C248        C249   1.405       .  A
C248        H253   1.084       .  S
C249        C250   1.415       .  A
C250        S254   1.804       .  S
C251        C256   1.408       .  A
C251        C260   1.399       .  A
S252        H268   1.406       .  S
S254        H265   1.407       .  S
C256        C257   1.401       .  A
C256        S261   1.804       .  S
C257        C258   1.405       .  A
C257        H262   1.083       .  S
C258        C259   1.417       .  A
C259        C260   1.398       .  A
C259        S263   1.802       .  S
C260        H264   1.084       .  S
S261        H266   1.406       .  S
S263        H267   1.407       .  S
C269        C270   1.402       .  A
C269        C274   1.400       .  A
C269        H279   1.084       .  S
C270        C275   1.477       .  S
C270        C271   1.410       .  A
C271        C272   1.398       .  A
C271        S276   1.806       .  S
C272        C273   1.406       .  A
C272        H277   1.084       .  S
C273        C274   1.415       .  A
C274        S278   1.803       .  S
C275        C280   1.407       .  A
C275        C284   1.399       .  A
S276        H292   1.405       .  S
S278        H289   1.407       .  S
C280        C281   1.401       .  A
C280        S285   1.805       .  S
C281        C282   1.406       .  A
C281        H286   1.083       .  S
C282        C283   1.418       .  A
C283        C284   1.402       .  A
C283        S287   1.809       .  S
C284        H288   1.083       .  S
S285        H290   1.406       .  S
S287        H291   1.406       .  S
C293        C294   1.400       .  A
C293        C298   1.397       .  A
C293        H303   1.084       .  S
C294        C299   1.474       .  S
C294        C295   1.411       .  A
C295        C296   1.398       .  A
C295        S300   1.803       .  S
C296        C297   1.403       .  A
C296        H301   1.084       .  S
C297        C298   1.414       .  A
C298        S302   1.804       .  S
C299        C304   1.406       .  A
C299        C308   1.399       .  A
S300        H316   1.405       .  S
S302        H313   1.407       .  S
C304        C305   1.402       .  A
C304        S309   1.807       .  S
C305        C306   1.406       .  A
C305        H310   1.083       .  S
C306        C307   1.416       .  A
C307        C308   1.398       .  A
C307        S311   1.799       .  S
C308        H312   1.084       .  S
S309        H314   1.406       .  S
S311        H315   1.404       .  S
O317       Zr329   2.428       .  S
O317        C319   1.286       .  A
O318       Zr671   2.416   1_556  S
O318        C319   1.283       .  A
C319        C541   1.477       .  S
O320      Zr1596   2.454       .  S
O320        C322   1.289       .  A
O321        C322   1.285       .  A
C322        C502   1.476       .  S
O323       Zr332   2.442       .  S
O323        C325   1.288       .  A
O324       Zr987   2.418       .  S
O324        C325   1.286       .  A
C325        C613   1.477       .  S
O326      Zr1593   2.436       .  S
O326        C328   1.287       .  A
O327       Zr356   2.429       .  S
O327        C328   1.287       .  A
C328        C589   1.479       .  S
Zr329      O1590   2.434       .  S
Zr329       O330   2.433       .  S
Zr329      O1595   2.436       .  S
Zr329       O335   2.365   1_556  S
Zr329      O1600   2.363       .  S
Zr329      O1623   2.371       .  S
Zr329       O993   2.371       .  S
O330        H373   0.990       .  S
O331      Zr1593   2.436   1_655  S
O331       H1636   0.990       .  S
O331       H1640   0.990       .  S
Zr332      O1584   2.457       .  S
Zr332       O333   2.437       .  S
Zr332      O1598   2.434       .  S
Zr332      O1284   2.369       .  S
Zr332       O992   2.377       .  S
Zr332      O1626   2.370       .  S
O333       H1638   0.990       .  S
O333        H377   0.990       .  S
O334      Zr1596   2.435       .  S
O334       H1631   0.990       .  S
O335       Zr671   2.377       .  S
O336      Zr1593   2.361       .  S
O336      Zr1280   2.369   1_556  S
O336       Zr356   2.380       .  S
O337       Zr349   2.441       .  S
O337        C339   1.288       .  A
O338       Zr988   2.417       .  S
O338        C339   1.286       .  A
C339        C478   1.475       .  S
O340      Zr1616   2.439       .  S
O340        C342   1.287       .  A
O341       Zr355   2.426       .  S
O341        C342   1.287       .  A
C342        C526   1.479       .  S
O343       Zr352   2.442       .  S
O343        C345   1.288       .  A
O344       Zr672   2.428       .  S
O344        C345   1.287       .  A
C345        C445   1.475       .  S
O346      Zr1613   2.432       .  S
O346        C348   1.286       .  A
O347        C348   1.288       .  A
C348        C565   1.477       .  S
Zr349      O1610   2.438   1_455  S
Zr349       O350   2.437       .  S
Zr349       O351   2.434   1_455  S
Zr349      O1306   2.370   1_456  S
Zr349      O1625   2.369   1_455  S
Zr349       O991   2.372       .  S
O350        H370   0.990       .  S
O350        H375   0.990       .  S
O351        H371   0.990       .  S
Zr352      O1604   2.445   1_455  S
Zr352       O353   2.432       .  S
Zr352       O354   2.435       .  S
Zr352      O1622   2.370   1_455  S
Zr352       O357   2.369       .  S
Zr352       O994   2.376       .  S
Zr352      O1624   2.376   1_455  S
O353       H1633   0.990       .  S
O354        H368   0.991       .  S
O354        H378   0.989   1_455  S
Zr355       O634   2.426   1_545  S
Zr355       O956   2.416   1_545  S
Zr355       O651   2.378   1_545  S
Zr355       O358   2.377       .  S
Zr355       O360   2.387       .  S
Zr356       O970   2.414       .  S
Zr356       O660   2.427   1_556  S
Zr356       O673   2.386       .  S
Zr356       O359   2.385       .  S
O357       Zr672   2.382       .  S
O358      Zr1297   2.372       .  S
O358      Zr1616   2.371       .  S
O359      Zr1593   2.369       .  S
O359       Zr981   2.374       .  S
O360       Zr964   2.376   1_545  S
O360      Zr1616   2.374       .  S
O360        H364   0.966       .  S
O361       Zr961   2.373   1_545  S
O361      Zr1613   2.371       .  S
O361        H366   0.966       .  S
O362      Zr1596   2.371       .  S
O362       Zr984   2.374       .  S
H367       O1598   0.990       .  S
H369       O1617   0.990       .  S
H372       O1595   0.990       .  S
H374       O1597   0.990       .  S
H376       O1595   0.990       .  S
O379       Zr391   2.442       .  S
O379        C381   1.289       .  A
O380       Zr417   2.417       .  S
O380        C381   1.285       .  A
C381        C622   1.483       .  S
O382       Zr394   2.437       .  S
O382        C384   1.286       .  A
O383       Zr418   2.418       .  S
O383        C384   1.286       .  A
C384        C598   1.485       .  S
O385       Zr394   2.432       .  S
O385        C387   1.286       .  A
O386       Zr417   2.423       .  S
O386        C387   1.286       .  A
C387        C550   1.473       .  S
O388       Zr391   2.432       .  S
O388        C390   1.286       .  A
O389       Zr418   2.432       .  S
O389        C390   1.289       .  A
C390        C493   1.481       .  S
Zr391       O392   2.435       .  S
Zr391       O393   2.435       .  S
Zr391       O397   2.365       .  S
Zr391       O398   2.371       .  S
Zr391       O421   2.375       .  S
Zr391       O423   2.367       .  S
O392        H435   0.990       .  S
O393        H434   0.990       .  S
O393        H438   0.990       .  S
Zr394       O395   2.435       .  S
Zr394       O396   2.434       .  S
Zr394       O398   2.366       .  S
Zr394       O397   2.371       .  S
Zr394       O422   2.371       .  S
Zr394       O424   2.370       .  S
O395        H436   0.990       .  S
O395        H439   0.990       .  S
O396        H429   0.990       .  S
O397       Zr417   2.380       .  S
O398       Zr418   2.382       .  S
O398        H425   0.966       .  S
O399       Zr411   2.440       .  S
O399        C401   1.288       .  A
O400       Zr418   2.422       .  S
O400        C401   1.285       .  A
C401        C454   1.480       .  S
O402       Zr414   2.441       .  S
O402        C404   1.288       .  A
O403       Zr417   2.419       .  S
O403        C404   1.286       .  A
C404        C574   1.479       .  S
O405       Zr414   2.437       .  S
O405        C407   1.288       .  A
O406       Zr418   2.426       .  S
O406        C407   1.287       .  A
C407        C469   1.486       .  S
O408       Zr411   2.433       .  S
O408        C410   1.286       .  A
O409       Zr417   2.429       .  S
O409        C410   1.288       .  A
C410        C517   1.489       .  S
Zr411       O412   2.436       .  S
Zr411       O413   2.434       .  S
Zr411       O419   2.366       .  S
Zr411       O420   2.373       .  S
Zr411       O423   2.373       .  S
Zr411       O421   2.372       .  S
O412        H432   0.990       .  S
O412        H437   0.990       .  S
O413        H433   0.990       .  S
Zr414       O415   2.433       .  S
Zr414       O416   2.433       .  S
Zr414       O420   2.371       .  S
Zr414       O419   2.370       .  S
Zr414       O424   2.374       .  S
Zr414       O422   2.369       .  S
O415        H431   0.990       .  S
O416        H430   0.990       .  S
O416        H440   0.990       .  S
Zr417       O420   2.379       .  S
Zr417       O422   2.386       .  S
Zr417       O423   2.383       .  S
Zr418       O419   2.382       .  S
Zr418       O421   2.381       .  S
Zr418       O424   2.385       .  S
O419        H427   0.965       .  S
O422        H426   0.966       .  S
O423        H428   0.965       .  S
C441        C442   1.399       .  A
C441        C446   1.395       .  A
C441        H451   1.084       .  S
C442        C447   1.476       .  S
C442        C443   1.413       .  A
C443        C444   1.402       .  A
C443        S448   1.804       .  S
C444        C445   1.404       .  A
C444        H449   1.084       .  S
C445        C446   1.414       .  A
C446        S450   1.802       .  S
C447        C452   1.408       .  A
C447        C456   1.399       .  A
S448        H464   1.405       .  S
S450        H461   1.406       .  S
C452        C453   1.402       .  A
C452        S457   1.805       .  S
C453        C454   1.406       .  A
C453        H458   1.083       .  S
C454        C455   1.416       .  A
C455        C456   1.398       .  A
C455        S459   1.799       .  S
C456        H460   1.084       .  S
S457        H462   1.407       .  S
S459        H463   1.408       .  S
C465        C466   1.402       .  A
C465        C470   1.402       .  A
C465        H475   1.084       .  S
C466        C471   1.479       .  S
C466        C467   1.410       .  A
C467        C468   1.397       .  A
C467        S472   1.805       .  S
C468        C469   1.408       .  A
C468        H473   1.084       .  S
C469        C470   1.418       .  A
C470        S474   1.803       .  S
C471        C476   1.409       .  A
C471        C480   1.402       .  A
S472        H488   1.405       .  S
S474        H485   1.408       .  S
C476        C477   1.401       .  A
C476        S481   1.807       .  S
C477        C478   1.404       .  A
C477        H482   1.083       .  S
C478        C479   1.414       .  A
C479        C480   1.400       .  A
C479        S483   1.804       .  S
C480        H484   1.084       .  S
S481        H486   1.407       .  S
S483        H487   1.407       .  S
C489        C490   1.400       .  A
C489        C494   1.402       .  A
C489        H499   1.083       .  S
C490        C495   1.475       .  S
C490        C491   1.410       .  A
C491        C492   1.398       .  A
C491        S496   1.803       .  S
C492        C493   1.405       .  A
C492        H497   1.084       .  S
C493        C494   1.417       .  A
C494        S498   1.808       .  S
C495        C500   1.409       .  A
C495        C504   1.398       .  A
S496        H512   1.405       .  S
S498        H509   1.407       .  S
C500        C501   1.405       .  A
C500        S505   1.806       .  S
C501        C502   1.405       .  A
C501        H506   1.083       .  S
C502        C503   1.414       .  A
C503        C504   1.395       .  A
C503        S507   1.801       .  S
C504        H508   1.084       .  S
S505        H510   1.407       .  S
S507        H511   1.406       .  S
C513        C514   1.399       .  A
C513        C518   1.397       .  A
C513        H523   1.084       .  S
C514        C519   1.478       .  S
C514        C515   1.410       .  A
C515        C516   1.399       .  A
C515        S520   1.803       .  S
C516        C517   1.408       .  A
C516        H521   1.084       .  S
C517        C518   1.421       .  A
C518        S522   1.802       .  S
C519        C524   1.409       .  A
C519        C528   1.401       .  A
S520        H536   1.405       .  S
S522        H533   1.407       .  S
C524        C525   1.402       .  A
C524        S529   1.807       .  S
C525        C526   1.404       .  A
C525        H530   1.083       .  S
C526        C527   1.415       .  A
C527        C528   1.403       .  A
C527        S531   1.808       .  S
C528        H532   1.083       .  S
S529        H534   1.407       .  S
S531        H535   1.407       .  S
C537        C538   1.401       .  A
C537        C542   1.398       .  A
C537        H547   1.084       .  S
C538        C543   1.469       .  S
C538        C539   1.409       .  A
C539        C540   1.393       .  A
C539        S544   1.807       .  S
C540        C541   1.406       .  A
C540        H545   1.084       .  S
C541        C542   1.416       .  A
C542        S546   1.800       .  S
C543        C548   1.408       .  A
C543        C552   1.398       .  A
S544        H560   1.404       .  S
S546        H557   1.408       .  S
C548        C549   1.402       .  A
C548        S553   1.806       .  S
C549        C550   1.404       .  A
C549        H554   1.083       .  S
C550        C551   1.416       .  A
C551        C552   1.394       .  A
C551        S555   1.804       .  S
C552        H556   1.084       .  S
S553        H558   1.407       .  S
S555        H559   1.406       .  S
C561        C562   1.402       .  A
C561        C566   1.400       .  A
C561        H571   1.084       .  S
C562        C567   1.476       .  S
C562        C563   1.410       .  A
C563        C564   1.398       .  A
C563        S568   1.804       .  S
C564        C565   1.406       .  A
C564        H569   1.084       .  S
C565        C566   1.414       .  A
C566        S570   1.804       .  S
C567        C572   1.408       .  A
C567        C576   1.399       .  A
S568        H584   1.405       .  S
S570        H581   1.406       .  S
C572        C573   1.402       .  A
C572        S577   1.805       .  S
C573        C574   1.405       .  A
C573        H578   1.083       .  S
C574        C575   1.416       .  A
C575        C576   1.398       .  A
C575        S579   1.803       .  S
C576        H580   1.084       .  S
S577        H582   1.406       .  S
S579        H583   1.408       .  S
C585        C586   1.402       .  A
C585        C590   1.400       .  A
C585        H595   1.084       .  S
C586        C591   1.477       .  S
C586        C587   1.410       .  A
C587        C588   1.397       .  A
C587        S592   1.805       .  S
C588        C589   1.406       .  A
C588        H593   1.084       .  S
C589        C590   1.415       .  A
C590        S594   1.804       .  S
C591        C596   1.406       .  A
C591        C600   1.399       .  A
S592        H608   1.405       .  S
S594        H605   1.406       .  S
C596        C597   1.400       .  A
C596        S601   1.805       .  S
C597        C598   1.408       .  A
C597        H602   1.082       .  S
C598        C599   1.419       .  A
C599        C600   1.402       .  A
C599        S603   1.809       .  S
C600        H604   1.083       .  S
S601        H606   1.407       .  S
S603        H607   1.407       .  S
C609        C610   1.400       .  A
C609        C614   1.398       .  A
C609        H619   1.084       .  S
C610        C615   1.475       .  S
C610        C611   1.412       .  A
C611        C612   1.398       .  A
C611        S616   1.805       .  S
C612        C613   1.404       .  A
C612        H617   1.084       .  S
C613        C614   1.416       .  A
C614        S618   1.803       .  S
C615        C620   1.407       .  A
C615        C624   1.399       .  A
S616        H632   1.405       .  S
S618        H629   1.407       .  S
C620        C621   1.401       .  A
C620        S625   1.807       .  S
C621        C622   1.407       .  A
C621        H626   1.083       .  S
C622        C623   1.418       .  A
C623        C624   1.397       .  A
C623        S627   1.799       .  S
C624        H628   1.084       .  S
S625        H630   1.407       .  S
S627        H631   1.403       .  S
O633       Zr645   2.433       .  S
O633        C635   1.287       .  A
O634        C635   1.286       .  A
C635        C857   1.482       .  S
O636      Zr1912   2.453       .  S
O636        C638   1.289       .  A
O637       Zr988   2.421   1_564  S
O637        C638   1.285       .  A
C638        C818   1.476       .  S
O639       Zr648   2.444       .  S
O639        C641   1.288       .  A
O640        C641   1.287       .  A
C641        C929   1.480       .  S
O642      Zr1909   2.443   1_455  S
O642        C644   1.289       .  A
O643       Zr672   2.423   1_565  S
O643        C644   1.286       .  A
C644        C905   1.482       .  S
Zr645      O1906   2.440       .  S
Zr645       O646   2.434       .  S
Zr645      O1911   2.435       .  S
Zr645       O651   2.366       .  S
Zr645      O1916   2.362       .  S
Zr645      O1939   2.373       .  S
O646        H689   0.990       .  S
O647      Zr1909   2.435       .  S
O647       H1952   0.990       .  S
O647       H1956   0.990       .  S
Zr648      O1900   2.458       .  S
Zr648       O649   2.436       .  S
Zr648      O1914   2.434       .  S
Zr648      O2232   2.370       .  S
Zr648       O967   2.371       .  S
Zr648      O1942   2.371   1_565  S
O649       H1954   0.990       .  S
O649        H693   0.990       .  S
O650      Zr1912   2.434       .  S
O650       H1947   0.990   1_455  S
O651       Zr964   2.371       .  S
O652      Zr1909   2.365   1_455  S
O652      Zr2228   2.374       .  S
O652       Zr672   2.386   1_565  S
O652        H995   0.964       .  S
O653       Zr665   2.442       .  S
O653        C655   1.287       .  A
O654        C655   1.286       .  A
C655        C794   1.473       .  S
O656      Zr1932   2.441       .  S
O656        C658   1.288       .  A
O657       Zr671   2.417       .  S
O657        C658   1.285       .  A
C658        C842   1.478       .  S
O659       Zr668   2.440       .  S
O659        C661   1.288       .  A
O660        C661   1.286       .  A
C661        C761   1.472       .  S
O662      Zr1929   2.443       .  S
O662        C664   1.289       .  A
O663       Zr987   2.420       .  S
O663        C664   1.286       .  A
C664        C881   1.478       .  S
Zr665      O1926   2.437   1_455  S
Zr665       O666   2.437       .  S
Zr665       O667   2.433   1_455  S
Zr665       O989   2.369       .  S
Zr665      O2254   2.369   1_455  S
Zr665      O1941   2.370   1_455  S
O666        H686   0.990       .  S
O666        H691   0.990       .  S
O667        H687   0.990   1_655  S
Zr668      O1920   2.446   1_455  S
Zr668       O669   2.433       .  S
Zr668       O670   2.434       .  S
Zr668      O1938   2.370   1_454  S
Zr668       O673   2.371   1_554  S
Zr668      O1940   2.374   1_455  S
O669       H1949   0.990       .  S
O670        H684   0.990       .  S
O670        H694   0.990   1_455  S
Zr671       O979   2.423   1_554  S
Zr671       O674   2.377       .  S
Zr671       O676   2.388       .  S
Zr671       O993   2.385   1_554  S
Zr672       O953   2.418   1_545  S
Zr672       O675   2.384   1_545  S
Zr672       O994   2.385       .  S
O673       Zr981   2.369       .  S
O673        H997   0.964       .  S
O674      Zr2245   2.370   1_554  S
O674      Zr1932   2.370       .  S
O675      Zr1909   2.374   1_455  S
O676      Zr1932   2.371       .  S
O676        H680   0.966       .  S
O677      Zr1929   2.372       .  S
O677       Zr987   2.385       .  S
O677        H682   0.966       .  S
O678      Zr1912   2.370   1_545  S
O678       Zr988   2.382   1_554  S
H679        O968   0.964       .  S
H681        O989   0.965       .  S
H683       O1914   0.990       .  S
H685       O1933   0.990       .  S
H688       O1911   0.990       .  S
H690       O1913   0.990       .  S
H692       O1911   0.990       .  S
O695       Zr707   2.433       .  S
O695        C697   1.287       .  A
O696       Zr733   2.428       .  S
O696        C697   1.287       .  A
C697        C938   1.486       .  S
O698       Zr710   2.436       .  S
O698        C700   1.287       .  A
O699       Zr734   2.421       .  S
O699        C700   1.287       .  A
C700        C914   1.483       .  S
O701       Zr710   2.437       .  S
O701        C703   1.287       .  A
O702       Zr733   2.427       .  S
O702        C703   1.287       .  A
C703        C866   1.478       .  S
O704       Zr707   2.434       .  S
O704        C706   1.286       .  A
O705       Zr734   2.435       .  S
O705        C706   1.289       .  A
C706        C809   1.480       .  S
Zr707       O708   2.434       .  S
Zr707       O709   2.435       .  S
Zr707       O713   2.371       .  S
Zr707       O714   2.368       .  S
Zr707       O737   2.372       .  S
Zr707       O739   2.369       .  S
O708        H751   0.990       .  S
O709        H750   0.990       .  S
O709        H754   0.990       .  S
Zr710       O711   2.434       .  S
Zr710       O712   2.434       .  S
Zr710       O714   2.368       .  S
Zr710       O713   2.369       .  S
Zr710       O738   2.371       .  S
Zr710       O740   2.367       .  S
O711        H752   0.990       .  S
O711        H755   0.990       .  S
O712        H745   0.990       .  S
O713       Zr733   2.381       .  S
O714       Zr734   2.380       .  S
O714        H741   0.966       .  S
O715       Zr727   2.445       .  S
O715        C717   1.288       .  A
O716       Zr734   2.425       .  S
O716        C717   1.286       .  A
C717        C770   1.481       .  S
O718       Zr730   2.433       .  S
O718        C720   1.287       .  A
O719       Zr733   2.433       .  S
O719        C720   1.289       .  A
C720        C890   1.482       .  S
O721       Zr730   2.433       .  S
O721        C723   1.287       .  A
O722       Zr734   2.423       .  S
O722        C723   1.286       .  A
C723        C785   1.481       .  S
O724       Zr727   2.443       .  S
O724        C726   1.288       .  A
O725       Zr733   2.427       .  S
O725        C726   1.288       .  A
C726        C833   1.487       .  S
Zr727       O728   2.436       .  S
Zr727       O729   2.434       .  S
Zr727       O735   2.371       .  S
Zr727       O736   2.372       .  S
Zr727       O739   2.371       .  S
Zr727       O737   2.374       .  S
O728        H748   0.990       .  S
O728        H753   0.990       .  S
O729        H749   0.990       .  S
Zr730       O731   2.434       .  S
Zr730       O732   2.435       .  S
Zr730       O736   2.369       .  S
Zr730       O735   2.368       .  S
Zr730       O740   2.369       .  S
Zr730       O738   2.369       .  S
O731        H747   0.990       .  S
O732        H746   0.990       .  S
O732        H756   0.990       .  S
Zr733       O736   2.380       .  S
Zr733       O738   2.385       .  S
Zr733       O739   2.386       .  S
Zr734       O735   2.386       .  S
Zr734       O737   2.382       .  S
Zr734       O740   2.382       .  S
O735        H743   0.965       .  S
O738        H742   0.966       .  S
O739        H744   0.965       .  S
C757        C758   1.401       .  A
C757        C762   1.397       .  A
C757        H767   1.084       .  S
C758        C763   1.478       .  S
C758        C759   1.413       .  A
C759        C760   1.402       .  A
C759        S764   1.804       .  S
C760        C761   1.403       .  A
C760        H765   1.084       .  S
C761        C762   1.412       .  A
C762        S766   1.803       .  S
C763        C768   1.408       .  A
C763        C772   1.400       .  A
S764        H780   1.405       .  S
S766        H777   1.406       .  S
C768        C769   1.403       .  A
C768        S773   1.806       .  S
C769        C770   1.406       .  A
C769        H774   1.083       .  S
C770        C771   1.415       .  A
C771        C772   1.399       .  A
C771        S775   1.799       .  S
C772        H776   1.084       .  S
S773        H778   1.406       .  S
S775        H779   1.407       .  S
C781        C782   1.403       .  A
C781        C786   1.402       .  A
C781        H791   1.084       .  S
C782        C787   1.475       .  S
C782        C783   1.408       .  A
C783        C784   1.394       .  A
C783        S788   1.805       .  S
C784        C785   1.406       .  A
C784        H789   1.084       .  S
C785        C786   1.417       .  A
C786        S790   1.804       .  S
C787        C792   1.408       .  A
C787        C796   1.402       .  A
S788        H804   1.405       .  S
S790        H801   1.407       .  S
C792        C793   1.399       .  A
C792        S797   1.807       .  S
C793        C794   1.404       .  A
C793        H798   1.083       .  S
C794        C795   1.414       .  A
C795        C796   1.399       .  A
C795        S799   1.803       .  S
C796        H800   1.084       .  S
S797        H802   1.407       .  S
S799        H803   1.407       .  S
C805        C806   1.401       .  A
C805        C810   1.404       .  A
C805        H815   1.083       .  S
C806        C811   1.478       .  S
C806        C807   1.411       .  A
C807        C808   1.399       .  A
C807        S812   1.805       .  S
C808        C809   1.404       .  A
C808        H813   1.084       .  S
C809        C810   1.415       .  A
C810        S814   1.808       .  S
C811        C816   1.409       .  A
C811        C820   1.399       .  A
S812        H828   1.404       .  S
S814        H825   1.407       .  S
C816        C817   1.406       .  A
C816        S821   1.806       .  S
C817        C818   1.405       .  A
C817        H822   1.083       .  S
C818        C819   1.414       .  A
C819        C820   1.397       .  A
C819        S823   1.801       .  S
C820        H824   1.084       .  S
S821        H826   1.407       .  S
S823        H827   1.406       .  S
C829        C830   1.399       .  A
C829        C834   1.397       .  A
C829        H839   1.084       .  S
C830        C835   1.478       .  S
C830        C831   1.411       .  A
C831        C832   1.402       .  A
C831        S836   1.803       .  S
C832        C833   1.408       .  A
C832        H837   1.083       .  S
C833        C834   1.419       .  A
C834        S838   1.802       .  S
C835        C840   1.409       .  A
C835        C844   1.400       .  A
S836        H852   1.405       .  S
S838        H849   1.407       .  S
C840        C841   1.402       .  A
C840        S845   1.806       .  S
C841        C842   1.404       .  A
C841        H846   1.083       .  S
C842        C843   1.415       .  A
C843        C844   1.403       .  A
C843        S847   1.807       .  S
C844        H848   1.083       .  S
S845        H850   1.407       .  S
S847        H851   1.407       .  S
C853        C854   1.402       .  A
C853        C858   1.400       .  A
C853        H863   1.084       .  S
C854        C859   1.475       .  S
C854        C855   1.410       .  A
C855        C856   1.396       .  A
C855        S860   1.806       .  S
C856        C857   1.407       .  A
C856        H861   1.084       .  S
C857        C858   1.416       .  A
C858        S862   1.798       .  S
C859        C864   1.409       .  A
C859        C868   1.398       .  A
S860        H876   1.404       .  S
S862        H873   1.407       .  S
C864        C865   1.404       .  A
C864        S869   1.806       .  S
C865        C866   1.406       .  A
C865        H870   1.083       .  S
C866        C867   1.416       .  A
C867        C868   1.395       .  A
C867        S871   1.802       .  S
C868        H872   1.084       .  S
S869        H874   1.407       .  S
S871        H875   1.407       .  S
C877        C878   1.403       .  A
C877        C882   1.402       .  A
C877        H887   1.084       .  S
C878        C883   1.479       .  S
C878        C879   1.411       .  A
C879        C880   1.397       .  A
C879        S884   1.804       .  S
C880        C881   1.404       .  A
C880        H885   1.084       .  S
C881        C882   1.415       .  A
C882        S886   1.804       .  S
C883        C888   1.408       .  A
C883        C892   1.400       .  A
S884        H900   1.405       .  S
S886        H897   1.408       .  S
C888        C889   1.403       .  A
C888        S893   1.803       .  S
C889        C890   1.405       .  A
C889        H894   1.083       .  S
C890        C891   1.418       .  A
C891        C892   1.400       .  A
C891        S895   1.803       .  S
C892        H896   1.084       .  S
S893        H898   1.405       .  S
S895        H899   1.408       .  S
C901        C902   1.402       .  A
C901        C906   1.400       .  A
C901        H911   1.084       .  S
C902        C907   1.479       .  S
C902        C903   1.411       .  A
C903        C904   1.399       .  A
C903        S908   1.807       .  S
C904        C905   1.406       .  A
C904        H909   1.084       .  S
C905        C906   1.416       .  A
C906        S910   1.804       .  S
C907        C912   1.408       .  A
C907        C916   1.400       .  A
S908        H924   1.405       .  S
S910        H921   1.407       .  S
C912        C913   1.401       .  A
C912        S917   1.806       .  S
C913        C914   1.406       .  A
C913        H918   1.082       .  S
C914        C915   1.417       .  A
C915        C916   1.402       .  A
C915        S919   1.809       .  S
C916        H920   1.083       .  S
S917        H922   1.406       .  S
S919        H923   1.406       .  S
C925        C926   1.400       .  A
C925        C930   1.398       .  A
C925        H935   1.084       .  S
C926        C931   1.477       .  S
C926        C927   1.412       .  A
C927        C928   1.400       .  A
C927        S932   1.804       .  S
C928        C929   1.405       .  A
C928        H933   1.084       .  S
C929        C930   1.417       .  A
C930        S934   1.803       .  S
C931        C936   1.407       .  A
C931        C940   1.400       .  A
S932        H948   1.405       .  S
S934        H945   1.407       .  S
C936        C937   1.402       .  A
C936        S941   1.807       .  S
C937        C938   1.409       .  A
C937        H942   1.083       .  S
C938        C939   1.418       .  A
C939        C940   1.398       .  A
C939        S943   1.800       .  S
C940        H944   1.084       .  S
S941        H946   1.407       .  S
S943        H947   1.405       .  S
O949       Zr961   2.428       .  S
O949        C951   1.287       .  A
O950        C951   1.285       .  A
C951       C1173   1.478       .  S
O952      Zr2228   2.456       .  S
O952        C954   1.289       .  A
O953        C954   1.285       .  A
C954       C1134   1.477       .  S
O955       Zr964   2.441       .  S
O955        C957   1.288       .  A
O956        C957   1.285       .  A
C957       C1245   1.475       .  S
O958      Zr2225   2.438       .  S
O958        C960   1.288       .  A
O959       Zr988   2.420   1_565  S
O959        C960   1.286       .  A
C960       C1221   1.478       .  S
Zr961      O2222   2.436       .  S
Zr961       O962   2.433       .  S
Zr961      O2227   2.435       .  S
Zr961       O967   2.366   1_556  S
Zr961      O2232   2.363   1_556  S
Zr961      O2255   2.370   1_565  S
O962       H1005   0.990       .  S
O963      Zr2225   2.436   1_655  S
O963       H2268   0.990       .  S
O963       H2272   0.990       .  S
Zr964      O2216   2.455       .  S
Zr964       O965   2.436       .  S
Zr964      O2230   2.434       .  S
Zr964      O1916   2.368       .  S
Zr964      O2258   2.375   1_565  S
O965       H2270   0.990       .  S
O965       H1009   0.990       .  S
O966      Zr2228   2.435       .  S
O966       H2263   0.990   1_455  S
O968      Zr2225   2.368       .  S
O968      Zr1912   2.369   1_556  S
O968       Zr988   2.382   1_565  S
O969       Zr981   2.443       .  S
O969        C971   1.288       .  A
O970        C971   1.285       .  A
C971       C1110   1.475       .  S
O972      Zr2248   2.439       .  S
O972        C974   1.287       .  A
O973       Zr987   2.424       .  S
O973        C974   1.286       .  A
C974       C1158   1.474       .  S
O975       Zr984   2.447       .  S
O975        C977   1.289       .  A
O976        C977   1.286       .  A
C977       C1077   1.473       .  S
O978      Zr2245   2.440       .  S
O978        C980   1.288       .  A
O979        C980   1.286       .  A
C980       C1197   1.478       .  S
Zr981      O2242   2.441   1_455  S
Zr981       O982   2.436       .  S
Zr981       O983   2.435   1_455  S
Zr981      O1938   2.371   1_455  S
Zr981      O2257   2.369   1_455  S
O982       H1002   0.990       .  S
O982       H1007   0.990       .  S
O983       H1003   0.990   1_655  S
Zr984      O2236   2.445   1_455  S
Zr984       O985   2.433       .  S
Zr984       O986   2.434       .  S
Zr984      O2254   2.370   1_455  S
Zr984       O989   2.371       .  S
Zr984      O2256   2.375   1_455  S
O985       H2265   0.990       .  S
O986       H1000   0.991       .  S
O986       H1010   0.990       .  S
Zr987       O990   2.377       .  S
Zr987       O992   2.389       .  S
Zr988       O991   2.383       .  S
O990      Zr1929   2.370       .  S
O990      Zr2248   2.368       .  S
O991      Zr2225   2.369   1_545  S
O992      Zr2248   2.374       .  S
O992        H996   0.966       .  S
O993      Zr2245   2.370       .  S
O993        H998   0.966       .  S
O994      Zr2228   2.370   1_545  S
H999       O2230   0.990       .  S
H1001      O2249   0.990       .  S
H1004      O2227   0.990       .  S
H1006      O2229   0.990   1_455  S
H1008      O2227   0.990       .  S
O1011     Zr1023   2.442       .  S
O1011      C1013   1.289       .  A
O1012     Zr1049   2.429       .  S
O1012      C1013   1.287       .  A
C1013      C1254   1.487       .  S
O1014     Zr1026   2.433       .  S
O1014      C1016   1.286       .  A
O1015     Zr1050   2.430       .  S
O1015      C1016   1.289       .  A
C1016      C1230   1.483       .  S
O1017     Zr1026   2.439       .  S
O1017      C1019   1.288       .  A
O1018     Zr1049   2.412       .  S
O1018      C1019   1.285       .  A
C1019      C1182   1.473       .  S
O1020     Zr1023   2.440       .  S
O1020      C1022   1.288       .  A
O1021     Zr1050   2.434       .  S
O1021      C1022   1.289       .  A
C1022      C1125   1.487       .  S
Zr1023     O1024   2.436       .  S
Zr1023     O1025   2.435       .  S
Zr1023     O1029   2.366       .  S
Zr1023     O1030   2.365       .  S
Zr1023     O1053   2.373       .  S
Zr1023     O1055   2.372       .  S
O1024      H1067   0.990       .  S
O1025      H1066   0.990       .  S
O1025      H1070   0.990       .  S
Zr1026     O1027   2.434       .  S
Zr1026     O1028   2.434       .  S
Zr1026     O1030   2.368       .  S
Zr1026     O1029   2.368       .  S
Zr1026     O1054   2.368       .  S
Zr1026     O1056   2.372       .  S
O1027      H1068   0.990       .  S
O1027      H1071   0.990       .  S
O1028      H1061   0.990       .  S
O1029     Zr1049   2.380       .  S
O1030     Zr1050   2.381       .  S
O1030      H1057   0.966       .  S
O1031     Zr1043   2.440       .  S
O1031      C1033   1.288       .  A
O1032     Zr1050   2.428       .  S
O1032      C1033   1.287       .  A
C1033      C1086   1.482       .  S
O1034     Zr1046   2.429       .  S
O1034      C1036   1.286       .  A
O1035     Zr1049   2.429       .  S
O1035      C1036   1.288       .  A
C1036      C1206   1.479       .  S
O1037     Zr1046   2.434       .  S
O1037      C1039   1.287       .  A
O1038     Zr1050   2.428       .  S
O1038      C1039   1.287       .  A
C1039      C1101   1.486       .  S
O1040     Zr1043   2.447       .  S
O1040      C1042   1.289       .  A
O1041     Zr1049   2.424       .  S
O1041      C1042   1.287       .  A
C1042      C1149   1.483       .  S
Zr1043     O1044   2.435       .  S
Zr1043     O1045   2.433       .  S
Zr1043     O1051   2.371       .  S
Zr1043     O1052   2.370       .  S
Zr1043     O1055   2.368       .  S
Zr1043     O1053   2.376       .  S
O1044      H1064   0.990       .  S
O1044      H1069   0.990       .  S
O1045      H1065   0.990       .  S
Zr1046     O1047   2.433       .  S
Zr1046     O1048   2.435       .  S
Zr1046     O1052   2.376       .  S
Zr1046     O1051   2.368       .  S
Zr1046     O1056   2.369       .  S
Zr1046     O1054   2.367       .  S
O1047      H1063   0.990       .  S
O1048      H1062   0.990       .  S
O1048      H1072   0.990       .  S
Zr1049     O1052   2.377       .  S
Zr1049     O1054   2.386       .  S
Zr1049     O1055   2.382       .  S
Zr1050     O1051   2.383       .  S
Zr1050     O1053   2.383       .  S
Zr1050     O1056   2.383       .  S
O1051      H1059   0.965       .  S
O1054      H1058   0.966       .  S
O1055      H1060   0.966       .  S
C1073      C1074   1.400       .  A
C1073      C1078   1.397       .  A
C1073      H1083   1.084       .  S
C1074      C1079   1.477       .  S
C1074      C1075   1.413       .  A
C1075      C1076   1.402       .  A
C1075      S1080   1.804       .  S
C1076      C1077   1.404       .  A
C1076      H1081   1.084       .  S
C1077      C1078   1.412       .  A
C1078      S1082   1.802       .  S
C1079      C1084   1.408       .  A
C1079      C1088   1.399       .  A
S1080      H1096   1.405       .  S
S1082      H1093   1.406       .  S
C1084      C1085   1.404       .  A
C1084      S1089   1.807       .  S
C1085      C1086   1.407       .  A
C1085      H1090   1.083       .  S
C1086      C1087   1.416       .  A
C1087      C1088   1.397       .  A
C1087      S1091   1.798       .  S
C1088      H1092   1.084       .  S
S1089      H1094   1.407       .  S
S1091      H1095   1.407       .  S
C1097      C1098   1.401       .  A
C1097      C1102   1.400       .  A
C1097      H1107   1.084       .  S
C1098      C1103   1.477       .  S
C1098      C1099   1.409       .  A
C1099      C1100   1.397       .  A
C1099      S1104   1.805       .  S
C1100      C1101   1.409       .  A
C1100      H1105   1.084       .  S
C1101      C1102   1.417       .  A
C1102      S1106   1.802       .  S
C1103      C1108   1.410       .  A
C1103      C1112   1.401       .  A
S1104      H1120   1.406       .  S
S1106      H1117   1.408       .  S
C1108      C1109   1.400       .  A
C1108      S1113   1.808       .  S
C1109      C1110   1.405       .  A
C1109      H1114   1.083       .  S
C1110      C1111   1.414       .  A
C1111      C1112   1.398       .  A
C1111      S1115   1.803       .  S
C1112      H1116   1.084       .  S
S1113      H1118   1.407       .  S
S1115      H1119   1.407       .  S
C1121      C1122   1.400       .  A
C1121      C1126   1.404       .  A
C1121      H1131   1.083       .  S
C1122      C1127   1.478       .  S
C1122      C1123   1.410       .  A
C1123      C1124   1.401       .  A
C1123      S1128   1.805       .  S
C1124      C1125   1.407       .  A
C1124      H1129   1.083       .  S
C1125      C1126   1.418       .  A
C1126      S1130   1.808       .  S
C1127      C1132   1.409       .  A
C1127      C1136   1.400       .  A
S1128      H1144   1.404       .  S
S1130      H1141   1.406       .  S
C1132      C1133   1.403       .  A
C1132      S1137   1.806       .  S
C1133      C1134   1.404       .  A
C1133      H1138   1.083       .  S
C1134      C1135   1.415       .  A
C1135      C1136   1.398       .  A
C1135      S1139   1.802       .  S
C1136      H1140   1.084       .  S
S1137      H1142   1.407       .  S
S1139      H1143   1.406       .  S
C1145      C1146   1.401       .  A
C1145      C1150   1.400       .  A
C1145      H1155   1.084       .  S
C1146      C1151   1.479       .  S
C1146      C1147   1.411       .  A
C1147      C1148   1.400       .  A
C1147      S1152   1.804       .  S
C1148      C1149   1.406       .  A
C1148      H1153   1.084       .  S
C1149      C1150   1.417       .  A
C1150      S1154   1.803       .  S
C1151      C1156   1.409       .  A
C1151      C1160   1.402       .  A
S1152      H1168   1.405       .  S
S1154      H1165   1.408       .  S
C1156      C1157   1.402       .  A
C1156      S1161   1.806       .  S
C1157      C1158   1.402       .  A
C1157      H1162   1.083       .  S
C1158      C1159   1.413       .  A
C1159      C1160   1.404       .  A
C1159      S1163   1.808       .  S
C1160      H1164   1.083       .  S
S1161      H1166   1.407       .  S
S1163      H1167   1.407       .  S
C1169      C1170   1.401       .  A
C1169      C1174   1.398       .  A
C1169      H1179   1.084       .  S
C1170      C1175   1.470       .  S
C1170      C1171   1.410       .  A
C1171      C1172   1.394       .  A
C1171      S1176   1.806       .  S
C1172      C1173   1.406       .  A
C1172      H1177   1.084       .  S
C1173      C1174   1.415       .  A
C1174      S1178   1.798       .  S
C1175      C1180   1.408       .  A
C1175      C1184   1.398       .  A
S1176      H1192   1.404       .  S
S1178      H1189   1.407       .  S
C1180      C1181   1.402       .  A
C1180      S1185   1.806       .  S
C1181      C1182   1.405       .  A
C1181      H1186   1.083       .  S
C1182      C1183   1.414       .  A
C1183      C1184   1.394       .  A
C1183      S1187   1.802       .  S
C1184      H1188   1.084       .  S
S1185      H1190   1.407       .  S
S1187      H1191   1.408       .  S
C1193      C1194   1.403       .  A
C1193      C1198   1.402       .  A
C1193      H1203   1.084       .  S
C1194      C1199   1.477       .  S
C1194      C1195   1.410       .  A
C1195      C1196   1.397       .  A
C1195      S1200   1.805       .  S
C1196      C1197   1.405       .  A
C1196      H1201   1.084       .  S
C1197      C1198   1.416       .  A
C1198      S1202   1.805       .  S
C1199      C1204   1.409       .  A
C1199      C1208   1.400       .  A
S1200      H1216   1.405       .  S
S1202      H1213   1.406       .  S
C1204      C1205   1.401       .  A
C1204      S1209   1.804       .  S
C1205      C1206   1.404       .  A
C1205      H1210   1.083       .  S
C1206      C1207   1.418       .  A
C1207      C1208   1.398       .  A
C1207      S1211   1.804       .  S
C1208      H1212   1.084       .  S
S1209      H1214   1.407       .  S
S1211      H1215   1.407       .  S
C1217      C1218   1.403       .  A
C1217      C1222   1.401       .  A
C1217      H1227   1.084       .  S
C1218      C1223   1.477       .  S
C1218      C1219   1.410       .  A
C1219      C1220   1.397       .  A
C1219      S1224   1.805       .  S
C1220      C1221   1.405       .  A
C1220      H1225   1.084       .  S
C1221      C1222   1.415       .  A
C1222      S1226   1.805       .  S
C1223      C1228   1.406       .  A
C1223      C1232   1.400       .  A
S1224      H1240   1.405       .  S
S1226      H1237   1.407       .  S
C1228      C1229   1.400       .  A
C1228      S1233   1.804       .  S
C1229      C1230   1.405       .  A
C1229      H1234   1.083       .  S
C1230      C1231   1.418       .  A
C1231      C1232   1.404       .  A
C1231      S1235   1.809       .  S
C1232      H1236   1.083       .  S
S1233      H1238   1.406       .  S
S1235      H1239   1.407       .  S
C1241      C1242   1.400       .  A
C1241      C1246   1.397       .  A
C1241      H1251   1.084       .  S
C1242      C1247   1.476       .  S
C1242      C1243   1.413       .  A
C1243      C1244   1.399       .  A
C1243      S1248   1.805       .  S
C1244      C1245   1.403       .  A
C1244      H1249   1.084       .  S
C1245      C1246   1.415       .  A
C1246      S1250   1.803       .  S
C1247      C1252   1.406       .  A
C1247      C1256   1.399       .  A
S1248      H1264   1.405       .  S
S1250      H1261   1.408       .  S
C1252      C1253   1.402       .  A
C1252      S1257   1.807       .  S
C1253      C1254   1.409       .  A
C1253      H1258   1.083       .  S
C1254      C1255   1.419       .  A
C1255      C1256   1.398       .  A
C1255      S1259   1.800       .  S
C1256      H1260   1.084       .  S
S1257      H1262   1.407       .  S
S1259      H1263   1.404       .  S
O1265     Zr1277   2.429   1_655  S
O1265      C1267   1.286       .  A
O1266     Zr2251   2.425       .  S
O1266      C1267   1.286       .  A
C1267      C1489   1.478       .  S
O1268      C1270   1.289       .  A
O1269     Zr1620   2.425   1_554  S
O1269      C1270   1.286       .  A
C1270      C1450   1.476       .  S
O1271     Zr1280   2.441   1_655  S
O1271      C1273   1.287       .  A
O1272     Zr1935   2.420       .  S
O1272      C1273   1.285       .  A
C1273      C1561   1.472       .  S
O1274      C1276   1.288       .  A
O1275     Zr1304   2.432       .  S
O1275      C1276   1.288       .  A
C1276      C1537   1.483       .  S
Zr1277     O1278   2.433   1_455  S
Zr1277     O1283   2.370   1_455  S
Zr1277     O1941   2.374   1_455  S
O1278      H1321   0.990       .  S
Zr1280     O1281   2.437   1_455  S
Zr1280     O1599   2.370   1_455  S
Zr1280     O1940   2.377   1_455  S
O1281      H1325   0.990   1_655  S
O1283     Zr1596   2.373   1_655  S
O1283     Zr2251   2.380       .  S
O1284     Zr1304   2.378       .  S
O1284      H1627   0.963       .  S
O1285     Zr1297   2.447       .  S
O1285      C1287   1.289       .  A
O1286     Zr1936   2.419       .  S
O1286      C1287   1.286       .  A
C1287      C1426   1.476       .  S
O1288      C1290   1.288       .  A
O1289     Zr1303   2.420       .  S
O1289      C1290   1.285       .  A
C1290      C1474   1.473       .  S
O1291     Zr1300   2.446       .  S
O1291      C1293   1.289       .  A
O1292     Zr2252   2.417   1_554  S
O1292      C1293   1.285       .  A
C1293      C1393   1.471       .  S
O1294      C1296   1.288       .  A
O1295     Zr1619   2.420       .  S
O1295      C1296   1.285       .  A
C1296      C1513   1.478       .  S
Zr1297     O1298   2.436       .  S
Zr1297     O1299   2.434       .  S
Zr1297     O1621   2.367       .  S
Zr1297     O1939   2.373   1_545  S
O1298      H1318   0.990       .  S
O1298      H1323   0.990       .  S
O1299      H1319   0.990       .  S
Zr1300     O1301   2.433       .  S
Zr1300     O1302   2.435       .  S
Zr1300     O1305   2.369   1_554  S
Zr1300     O1942   2.377       .  S
O1302      H1316   0.990       .  S
O1302      H1326   0.990       .  S
Zr1303     O2214   2.421   1_544  S
Zr1303     O1904   2.421   1_545  S
Zr1303     O1611   2.429   1_554  S
Zr1303     O2231   2.379   1_545  S
Zr1303     O1306   2.377       .  S
Zr1303     O1308   2.387       .  S
Zr1303     O1625   2.385   1_554  S
Zr1304     O1585   2.414       .  S
Zr1304     O1918   2.416       .  S
Zr1304     O2240   2.417       .  S
Zr1304     O2253   2.385       .  S
Zr1304     O1307   2.379       .  S
Zr1304     O1626   2.386       .  S
O1305     Zr1613   2.365       .  S
O1305     Zr2252   2.384       .  S
O1305      H1629   0.965       .  S
O1307     Zr1929   2.374       .  S
O1308     Zr1912   2.376   1_645  S
O1308      H1312   0.965       .  S
O1309     Zr1909   2.375   1_545  S
O1309     Zr1619   2.386       .  S
O1309      H1314   0.966       .  S
O1310     Zr1932   2.374       .  S
O1310     Zr1620   2.383   1_554  S
H1311      O1600   0.964       .  S
H1313      O1621   0.965       .  S
O1327     Zr1339   2.441       .  S
O1327      C1329   1.288       .  A
O1328     Zr1365   2.432       .  S
O1328      C1329   1.288       .  A
C1329      C1570   1.482       .  S
O1330     Zr1342   2.440       .  S
O1330      C1332   1.288       .  A
O1331     Zr1366   2.436       .  S
O1331      C1332   1.289       .  A
C1332      C1546   1.490       .  S
O1333     Zr1342   2.436       .  S
O1333      C1335   1.287       .  A
O1334     Zr1365   2.426       .  S
O1334      C1335   1.288       .  A
C1335      C1498   1.480       .  S
O1336     Zr1339   2.442       .  S
O1336      C1338   1.288       .  A
O1337     Zr1366   2.431       .  S
O1337      C1338   1.288       .  A
C1338      C1441   1.483       .  S
Zr1339     O1340   2.433       .  S
Zr1339     O1341   2.436       .  S
Zr1339     O1345   2.370       .  S
Zr1339     O1346   2.370       .  S
Zr1339     O1369   2.372       .  S
Zr1339     O1371   2.373       .  S
O1340      H1383   0.990       .  S
O1341      H1382   0.990       .  S
O1341      H1386   0.990       .  S
Zr1342     O1343   2.433       .  S
Zr1342     O1344   2.432       .  S
Zr1342     O1346   2.366       .  S
Zr1342     O1345   2.371       .  S
Zr1342     O1370   2.370       .  S
Zr1342     O1372   2.368       .  S
O1343      H1384   0.989       .  S
O1343      H1387   0.990       .  S
O1344      H1377   0.990       .  S
O1345     Zr1365   2.380       .  S
O1346     Zr1366   2.380       .  S
O1346      H1373   0.966       .  S
O1347     Zr1359   2.439       .  S
O1347      C1349   1.288       .  A
O1348     Zr1366   2.425       .  S
O1348      C1349   1.286       .  A
C1349      C1402   1.480       .  S
O1350     Zr1362   2.442       .  S
O1350      C1352   1.288       .  A
O1351     Zr1365   2.422       .  S
O1351      C1352   1.287       .  A
C1352      C1522   1.482       .  S
O1353     Zr1362   2.436       .  S
O1353      C1355   1.288       .  A
O1354     Zr1366   2.421       .  S
O1354      C1355   1.286       .  A
C1355      C1417   1.481       .  S
O1356     Zr1359   2.440       .  S
O1356      C1358   1.288       .  A
O1357     Zr1365   2.433       .  S
O1357      C1358   1.288       .  A
C1358      C1465   1.486       .  S
Zr1359     O1360   2.437       .  S
Zr1359     O1361   2.433       .  S
Zr1359     O1367   2.369       .  S
Zr1359     O1368   2.370       .  S
Zr1359     O1371   2.371       .  S
Zr1359     O1369   2.375       .  S
O1360      H1380   0.990       .  S
O1360      H1385   0.990       .  S
O1361      H1381   0.990       .  S
Zr1362     O1363   2.434       .  S
Zr1362     O1364   2.434       .  S
Zr1362     O1368   2.371       .  S
Zr1362     O1367   2.369       .  S
Zr1362     O1372   2.371       .  S
Zr1362     O1370   2.369       .  S
O1363      H1379   0.990       .  S
O1364      H1378   0.990       .  S
O1364      H1388   0.990       .  S
Zr1365     O1368   2.382       .  S
Zr1365     O1370   2.388       .  S
Zr1365     O1371   2.385       .  S
Zr1366     O1367   2.388       .  S
Zr1366     O1369   2.385       .  S
Zr1366     O1372   2.383       .  S
O1367      H1375   0.965       .  S
O1370      H1374   0.966       .  S
O1371      H1376   0.966       .  S
C1389      C1390   1.400       .  A
C1389      C1394   1.396       .  A
C1389      H1399   1.084       .  S
C1390      C1395   1.472       .  S
C1390      C1391   1.413       .  A
C1391      C1392   1.399       .  A
C1391      S1396   1.806       .  S
C1392      C1393   1.403       .  A
C1392      H1397   1.084       .  S
C1393      C1394   1.412       .  A
C1394      S1398   1.802       .  S
C1395      C1400   1.407       .  A
C1395      C1404   1.398       .  A
S1396      H1412   1.403       .  S
S1398      H1409   1.406       .  S
C1400      C1401   1.403       .  A
C1400      S1405   1.806       .  S
C1401      C1402   1.408       .  A
C1401      H1406   1.083       .  S
C1402      C1403   1.416       .  A
C1403      C1404   1.396       .  A
C1403      S1407   1.799       .  S
C1404      H1408   1.084       .  S
S1405      H1410   1.406       .  S
S1407      H1411   1.407       .  S
C1413      C1414   1.402       .  A
C1413      C1418   1.401       .  A
C1413      H1423   1.084       .  S
C1414      C1419   1.475       .  S
C1414      C1415   1.408       .  A
C1415      C1416   1.395       .  A
C1415      S1420   1.805       .  S
C1416      C1417   1.407       .  A
C1416      H1421   1.084       .  S
C1417      C1418   1.417       .  A
C1418      S1422   1.804       .  S
C1419      C1424   1.408       .  A
C1419      C1428   1.401       .  A
S1420      H1436   1.405       .  S
S1422      H1433   1.407       .  S
C1424      C1425   1.400       .  A
C1424      S1429   1.807       .  S
C1425      C1426   1.405       .  A
C1425      H1430   1.083       .  S
C1426      C1427   1.414       .  A
C1427      C1428   1.399       .  A
C1427      S1431   1.803       .  S
C1428      H1432   1.084       .  S
S1429      H1434   1.407       .  S
S1431      H1435   1.406       .  S
C1437      C1438   1.401       .  A
C1437      C1442   1.404       .  A
C1437      H1447   1.083       .  S
C1438      C1443   1.481       .  S
C1438      C1439   1.413       .  A
C1439      C1440   1.401       .  A
C1439      S1444   1.806       .  S
C1440      C1441   1.405       .  A
C1440      H1445   1.084       .  S
C1441      C1442   1.415       .  A
C1442      S1446   1.808       .  S
C1443      C1448   1.410       .  A
C1443      C1452   1.401       .  A
S1444      H1460   1.404       .  S
S1446      H1457   1.406       .  S
C1448      C1449   1.405       .  A
C1448      S1453   1.806       .  S
C1449      C1450   1.404       .  A
C1449      H1454   1.083       .  S
C1450      C1451   1.414       .  A
C1451      C1452   1.399       .  A
C1451      S1455   1.802       .  S
C1452      H1456   1.084       .  S
S1453      H1458   1.407       .  S
S1455      H1459   1.405       .  S
C1461      C1462   1.399       .  A
C1461      C1466   1.399       .  A
C1461      H1471   1.084       .  S
C1462      C1467   1.480       .  S
C1462      C1463   1.412       .  A
C1463      C1464   1.402       .  A
C1463      S1468   1.804       .  S
C1464      C1465   1.407       .  A
C1464      H1469   1.083       .  S
C1465      C1466   1.418       .  A
C1466      S1470   1.803       .  S
C1467      C1472   1.410       .  A
C1467      C1476   1.403       .  A
S1468      H1484   1.405       .  S
S1470      H1481   1.408       .  S
C1472      C1473   1.403       .  A
C1472      S1477   1.806       .  S
C1473      C1474   1.402       .  A
C1473      H1478   1.083       .  S
C1474      C1475   1.411       .  A
C1475      C1476   1.404       .  A
C1475      S1479   1.808       .  S
C1476      H1480   1.083       .  S
S1477      H1482   1.407       .  S
S1479      H1483   1.407       .  S
C1485      C1486   1.401       .  A
C1485      C1490   1.398       .  A
C1485      H1495   1.084       .  S
C1486      C1491   1.473       .  S
C1486      C1487   1.410       .  A
C1487      C1488   1.396       .  A
C1487      S1492   1.805       .  S
C1488      C1489   1.406       .  A
C1488      H1493   1.084       .  S
C1489      C1490   1.414       .  A
C1490      S1494   1.797       .  S
C1491      C1496   1.407       .  A
C1491      C1500   1.397       .  A
S1492      H1508   1.405       .  S
S1494      H1505   1.406       .  S
C1496      C1497   1.404       .  A
C1496      S1501   1.806       .  S
C1497      C1498   1.407       .  A
C1497      H1502   1.083       .  S
C1498      C1499   1.418       .  A
C1499      C1500   1.395       .  A
C1499      S1503   1.802       .  S
C1500      H1504   1.084       .  S
S1501      H1506   1.407       .  S
S1503      H1507   1.405       .  S
C1509      C1510   1.402       .  A
C1509      C1514   1.400       .  A
C1509      H1519   1.084       .  S
C1510      C1515   1.478       .  S
C1510      C1511   1.411       .  A
C1511      C1512   1.398       .  A
C1511      S1516   1.805       .  S
C1512      C1513   1.406       .  A
C1512      H1517   1.084       .  S
C1513      C1514   1.415       .  A
C1514      S1518   1.804       .  S
C1515      C1520   1.408       .  A
C1515      C1524   1.400       .  A
S1516      H1532   1.405       .  S
S1518      H1529   1.407       .  S
C1520      C1521   1.402       .  A
C1520      S1525   1.805       .  S
C1521      C1522   1.406       .  A
C1521      H1526   1.083       .  S
C1522      C1523   1.417       .  A
C1523      C1524   1.399       .  A
C1523      S1527   1.803       .  S
C1524      H1528   1.084       .  S
S1525      H1530   1.406       .  S
S1527      H1531   1.408       .  S
C1533      C1534   1.403       .  A
C1533      C1538   1.402       .  A
C1533      H1543   1.084       .  S
C1534      C1539   1.484       .  S
C1534      C1535   1.412       .  A
C1535      C1536   1.400       .  A
C1535      S1540   1.805       .  S
C1536      C1537   1.407       .  A
C1536      H1541   1.084       .  S
C1537      C1538   1.415       .  A
C1538      S1542   1.804       .  S
C1539      C1544   1.408       .  A
C1539      C1548   1.400       .  A
S1540      H1556   1.405       .  S
S1542      H1553   1.408       .  S
C1544      C1545   1.405       .  A
C1544      S1549   1.805       .  S
C1545      C1546   1.407       .  A
C1545      H1550   1.082       .  S
C1546      C1547   1.419       .  A
C1547      C1548   1.406       .  A
C1547      S1551   1.809       .  S
C1548      H1552   1.083       .  S
S1549      H1554   1.406       .  S
S1551      H1555   1.406       .  S
C1557      C1558   1.401       .  A
C1557      C1562   1.397       .  A
C1557      H1567   1.084       .  S
C1558      C1563   1.478       .  S
C1558      C1559   1.413       .  A
C1559      C1560   1.400       .  A
C1559      S1564   1.803       .  S
C1560      C1561   1.403       .  A
C1560      H1565   1.084       .  S
C1561      C1562   1.414       .  A
C1562      S1566   1.805       .  S
C1563      C1568   1.408       .  A
C1563      C1572   1.400       .  A
S1564      H1580   1.406       .  S
S1566      H1577   1.407       .  S
C1568      C1569   1.403       .  A
C1568      S1573   1.807       .  S
C1569      C1570   1.406       .  A
C1569      H1574   1.083       .  S
C1570      C1571   1.416       .  A
C1571      C1572   1.398       .  A
C1571      S1575   1.798       .  S
C1572      H1576   1.084       .  S
S1573      H1578   1.406       .  S
S1575      H1579   1.403       .  S
O1581     Zr1593   2.427   1_655  S
O1581      C1583   1.286       .  A
O1582     Zr1935   2.423   1_556  S
O1582      C1583   1.285       .  A
C1583      C1805   1.478       .  S
O1584      C1586   1.289       .  A
O1585      C1586   1.284       .  A
C1586      C1766   1.472       .  S
O1587     Zr1596   2.444   1_655  S
O1587      C1589   1.288       .  A
O1588     Zr2251   2.420       .  S
O1588      C1589   1.286       .  A
C1589      C1877   1.476       .  S
O1590      C1592   1.287       .  A
O1591     Zr1620   2.422       .  S
O1591      C1592   1.286       .  A
C1592      C1853   1.473       .  S
Zr1593     O1594   2.434       .  S
Zr1593     O1599   2.367   1_456  S
Zr1593     O2257   2.371   1_455  S
O1594      H1637   0.990   1_455  S
Zr1596     O1597   2.436       .  S
Zr1596     O2256   2.376   1_455  S
O1597      H1641   0.990       .  S
O1599     Zr1935   2.376       .  S
O1600     Zr1620   2.381       .  S
O1601     Zr1613   2.438       .  S
O1601      C1603   1.287       .  A
O1602     Zr2252   2.414       .  S
O1602      C1603   1.285       .  A
C1603      C1742   1.473       .  S
O1604      C1606   1.288       .  A
O1605     Zr1619   2.422       .  S
O1605      C1606   1.286       .  A
C1606      C1790   1.480       .  S
O1607     Zr1616   2.442       .  S
O1607      C1609   1.288       .  A
O1608     Zr1936   2.423       .  S
O1608      C1609   1.286       .  A
C1609      C1709   1.470       .  S
O1610      C1612   1.288       .  A
O1611      C1612   1.287       .  A
C1612      C1829   1.478       .  S
Zr1613     O1614   2.436       .  S
Zr1613     O1615   2.434       .  S
Zr1613     O2255   2.372       .  S
O1614      H1634   0.990       .  S
O1614      H1639   0.990       .  S
O1615      H1635   0.990       .  S
Zr1616     O1617   2.434       .  S
Zr1616     O1618   2.435       .  S
Zr1616     O1621   2.371       .  S
Zr1616     O2258   2.376       .  S
O1618      H1632   0.990       .  S
O1618      H1642   0.990       .  S
Zr1619     O1898   2.423   1_545  S
Zr1619     O2220   2.409   1_545  S
Zr1619     O1915   2.379   1_545  S
Zr1619     O1622   2.373       .  S
Zr1619     O1624   2.390       .  S
Zr1620     O2234   2.422       .  S
Zr1620     O1924   2.423   1_556  S
Zr1620     O1937   2.384       .  S
Zr1620     O1623   2.384       .  S
O1621     Zr1936   2.382       .  S
O1623     Zr2245   2.374       .  S
O1624     Zr2228   2.376   1_645  S
O1624      H1628   0.966       .  S
O1625     Zr2225   2.371   1_645  S
O1625      H1630   0.966       .  S
O1626     Zr2248   2.376       .  S
O1643     Zr1655   2.444       .  S
O1643      C1645   1.289       .  A
O1644     Zr1681   2.430       .  S
O1644      C1645   1.287       .  A
C1645      C1886   1.484       .  S
O1646     Zr1658   2.442       .  S
O1646      C1648   1.287       .  A
O1647     Zr1682   2.423       .  S
O1647      C1648   1.287       .  A
C1648      C1862   1.487       .  S
O1649     Zr1658   2.434       .  S
O1649      C1651   1.287       .  A
O1650     Zr1681   2.416       .  S
O1650      C1651   1.286       .  A
C1651      C1814   1.473       .  S
O1652     Zr1655   2.438       .  S
O1652      C1654   1.288       .  A
O1653     Zr1682   2.435       .  S
O1653      C1654   1.289       .  A
C1654      C1757   1.479       .  S
Zr1655     O1656   2.435       .  S
Zr1655     O1657   2.436       .  S
Zr1655     O1661   2.368       .  S
Zr1655     O1662   2.373       .  S
Zr1655     O1685   2.374       .  S
Zr1655     O1687   2.368       .  S
O1656      H1699   0.990       .  S
O1657      H1698   0.990       .  S
O1657      H1702   0.990       .  S
Zr1658     O1659   2.435       .  S
Zr1658     O1660   2.434       .  S
Zr1658     O1662   2.364       .  S
Zr1658     O1661   2.375       .  S
Zr1658     O1686   2.373       .  S
Zr1658     O1688   2.366       .  S
O1659      H1700   0.989       .  S
O1659      H1703   0.990       .  S
O1660      H1693   0.990       .  S
O1661     Zr1681   2.382       .  S
O1662     Zr1682   2.381       .  S
O1662      H1689   0.966       .  S
O1663     Zr1675   2.443       .  S
O1663      C1665   1.289       .  A
O1664     Zr1682   2.418       .  S
O1664      C1665   1.285       .  A
C1665      C1718   1.477       .  S
O1666     Zr1678   2.441       .  S
O1666      C1668   1.288       .  A
O1667     Zr1681   2.426       .  S
O1667      C1668   1.287       .  A
C1668      C1838   1.483       .  S
O1669     Zr1678   2.437       .  S
O1669      C1671   1.288       .  A
O1670     Zr1682   2.426       .  S
O1670      C1671   1.286       .  A
C1671      C1733   1.485       .  S
O1672     Zr1675   2.439       .  S
O1672      C1674   1.287       .  A
O1673     Zr1681   2.428       .  S
O1673      C1674   1.288       .  A
C1674      C1781   1.492       .  S
Zr1675     O1676   2.435       .  S
Zr1675     O1677   2.435       .  S
Zr1675     O1683   2.371       .  S
Zr1675     O1684   2.372       .  S
Zr1675     O1687   2.369       .  S
Zr1675     O1685   2.371       .  S
O1676      H1696   0.990       .  S
O1676      H1701   0.990       .  S
O1677      H1697   0.990       .  S
Zr1678     O1679   2.434       .  S
Zr1678     O1680   2.434       .  S
Zr1678     O1684   2.368       .  S
Zr1678     O1683   2.369       .  S
Zr1678     O1688   2.374       .  S
Zr1678     O1686   2.371       .  S
O1679      H1695   0.990       .  S
O1680      H1694   0.990       .  S
O1680      H1704   0.991       .  S
Zr1681     O1684   2.379       .  S
Zr1681     O1686   2.389       .  S
Zr1681     O1687   2.382       .  S
Zr1682     O1683   2.387       .  S
Zr1682     O1685   2.384       .  S
Zr1682     O1688   2.381       .  S
O1683      H1691   0.965       .  S
O1686      H1690   0.966       .  S
O1687      H1692   0.965       .  S
C1705      C1706   1.400       .  A
C1705      C1710   1.396       .  A
C1705      H1715   1.084       .  S
C1706      C1711   1.475       .  S
C1706      C1707   1.413       .  A
C1707      C1708   1.400       .  A
C1707      S1712   1.805       .  S
C1708      C1709   1.402       .  A
C1708      H1713   1.084       .  S
C1709      C1710   1.412       .  A
C1710      S1714   1.802       .  S
C1711      C1716   1.408       .  A
C1711      C1720   1.399       .  A
S1712      H1728   1.405       .  S
S1714      H1725   1.406       .  S
C1716      C1717   1.402       .  A
C1716      S1721   1.807       .  S
C1717      C1718   1.405       .  A
C1717      H1722   1.083       .  S
C1718      C1719   1.415       .  A
C1719      C1720   1.396       .  A
C1719      S1723   1.798       .  S
C1720      H1724   1.084       .  S
S1721      H1726   1.407       .  S
S1723      H1727   1.407       .  S
C1729      C1730   1.402       .  A
C1729      C1734   1.400       .  A
C1729      H1739   1.084       .  S
C1730      C1735   1.476       .  S
C1730      C1731   1.410       .  A
C1731      C1732   1.396       .  A
C1731      S1736   1.806       .  S
C1732      C1733   1.408       .  A
C1732      H1737   1.084       .  S
C1733      C1734   1.418       .  A
C1734      S1738   1.803       .  S
C1735      C1740   1.409       .  A
C1735      C1744   1.402       .  A
S1736      H1752   1.405       .  S
S1738      H1749   1.407       .  S
C1740      C1741   1.400       .  A
C1740      S1745   1.807       .  S
C1741      C1742   1.404       .  A
C1741      H1746   1.083       .  S
C1742      C1743   1.414       .  A
C1743      C1744   1.399       .  A
C1743      S1747   1.803       .  S
C1744      H1748   1.084       .  S
S1745      H1750   1.407       .  S
S1747      H1751   1.407       .  S
C1753      C1754   1.401       .  A
C1753      C1758   1.403       .  A
C1753      H1763   1.083       .  S
C1754      C1759   1.479       .  S
C1754      C1755   1.411       .  A
C1755      C1756   1.400       .  A
C1755      S1760   1.803       .  S
C1756      C1757   1.404       .  A
C1756      H1761   1.084       .  S
C1757      C1758   1.414       .  A
C1758      S1762   1.807       .  S
C1759      C1764   1.411       .  A
C1759      C1768   1.400       .  A
S1760      H1776   1.406       .  S
S1762      H1773   1.407       .  S
C1764      C1765   1.404       .  A
C1764      S1769   1.806       .  S
C1765      C1766   1.403       .  A
C1765      H1770   1.083       .  S
C1766      C1767   1.413       .  A
C1767      C1768   1.396       .  A
C1767      S1771   1.802       .  S
C1768      H1772   1.084       .  S
S1769      H1774   1.407       .  S
S1771      H1775   1.405       .  S
C1777      C1778   1.399       .  A
C1777      C1782   1.397       .  A
C1777      H1787   1.084       .  S
C1778      C1783   1.481       .  S
C1778      C1779   1.410       .  A
C1779      C1780   1.401       .  A
C1779      S1784   1.802       .  S
C1780      C1781   1.409       .  A
C1780      H1785   1.083       .  S
C1781      C1782   1.421       .  A
C1782      S1786   1.802       .  S
C1783      C1788   1.410       .  A
C1783      C1792   1.401       .  A
S1784      H1800   1.406       .  S
S1786      H1797   1.408       .  S
C1788      C1789   1.402       .  A
C1788      S1793   1.807       .  S
C1789      C1790   1.404       .  A
C1789      H1794   1.083       .  S
C1790      C1791   1.415       .  A
C1791      C1792   1.403       .  A
C1791      S1795   1.807       .  S
C1792      H1796   1.083       .  S
S1793      H1798   1.407       .  S
S1795      H1799   1.407       .  S
C1801      C1802   1.401       .  A
C1801      C1806   1.398       .  A
C1801      H1811   1.084       .  S
C1802      C1807   1.470       .  S
C1802      C1803   1.410       .  A
C1803      C1804   1.395       .  A
C1803      S1808   1.807       .  S
C1804      C1805   1.406       .  A
C1804      H1809   1.084       .  S
C1805      C1806   1.415       .  A
C1806      S1810   1.798       .  S
C1807      C1812   1.408       .  A
C1807      C1816   1.398       .  A
S1808      H1824   1.404       .  S
S1810      H1821   1.407       .  S
C1812      C1813   1.401       .  A
C1812      S1817   1.806       .  S
C1813      C1814   1.405       .  A
C1813      H1818   1.083       .  S
C1814      C1815   1.415       .  A
C1815      C1816   1.394       .  A
C1815      S1819   1.803       .  S
C1816      H1820   1.084       .  S
S1817      H1822   1.407       .  S
S1819      H1823   1.406       .  S
C1825      C1826   1.403       .  A
C1825      C1830   1.402       .  A
C1825      H1835   1.084       .  S
C1826      C1831   1.479       .  S
C1826      C1827   1.410       .  A
C1827      C1828   1.398       .  A
C1827      S1832   1.804       .  S
C1828      C1829   1.405       .  A
C1828      H1833   1.084       .  S
C1829      C1830   1.415       .  A
C1830      S1834   1.805       .  S
C1831      C1836   1.408       .  A
C1831      C1840   1.399       .  A
S1832      H1848   1.405       .  S
S1834      H1845   1.407       .  S
C1836      C1837   1.405       .  A
C1836      S1841   1.805       .  S
C1837      C1838   1.406       .  A
C1837      H1842   1.083       .  S
C1838      C1839   1.417       .  A
C1839      C1840   1.398       .  A
C1839      S1843   1.802       .  S
C1840      H1844   1.084       .  S
S1841      H1846   1.405       .  S
S1843      H1847   1.407       .  S
C1849      C1850   1.403       .  A
C1849      C1854   1.400       .  A
C1849      H1859   1.084       .  S
C1850      C1855   1.477       .  S
C1850      C1851   1.411       .  A
C1851      C1852   1.397       .  A
C1851      S1856   1.806       .  S
C1852      C1853   1.404       .  A
C1852      H1857   1.084       .  S
C1853      C1854   1.413       .  A
C1854      S1858   1.805       .  S
C1855      C1860   1.407       .  A
C1855      C1864   1.399       .  A
S1856      H1872   1.404       .  S
S1858      H1869   1.407       .  S
C1860      C1861   1.402       .  A
C1860      S1865   1.806       .  S
C1861      C1862   1.408       .  A
C1861      H1866   1.082       .  S
C1862      C1863   1.419       .  A
C1863      C1864   1.403       .  A
C1863      S1867   1.809       .  S
C1864      H1868   1.083       .  S
S1865      H1870   1.407       .  S
S1867      H1871   1.407       .  S
C1873      C1874   1.400       .  A
C1873      C1878   1.397       .  A
C1873      H1883   1.084       .  S
C1874      C1879   1.475       .  S
C1874      C1875   1.413       .  A
C1875      C1876   1.400       .  A
C1875      S1880   1.806       .  S
C1876      C1877   1.404       .  A
C1876      H1881   1.084       .  S
C1877      C1878   1.414       .  A
C1878      S1882   1.803       .  S
C1879      C1884   1.407       .  A
C1879      C1888   1.399       .  A
S1880      H1896   1.403       .  S
S1882      H1893   1.408       .  S
C1884      C1885   1.403       .  A
C1884      S1889   1.807       .  S
C1885      C1886   1.407       .  A
C1885      H1890   1.083       .  S
C1886      C1887   1.418       .  A
C1887      C1888   1.398       .  A
C1887      S1891   1.798       .  S
C1888      H1892   1.084       .  S
S1889      H1894   1.406       .  S
S1891      H1895   1.403       .  S
O1897     Zr1909   2.438       .  S
O1897      C1899   1.288       .  A
O1898      C1899   1.285       .  A
C1899      C2121   1.484       .  S
O1900      C1902   1.290       .  A
O1901     Zr2252   2.420   1_564  S
O1901      C1902   1.285       .  A
C1902      C2082   1.478       .  S
O1903     Zr1912   2.434   1_655  S
O1903      C1905   1.286       .  A
O1904      C1905   1.286       .  A
C1905      C2193   1.472       .  S
O1906      C1908   1.288       .  A
O1907     Zr1936   2.423   1_565  S
O1907      C1908   1.286       .  A
C1908      C2169   1.477       .  S
Zr1909     O1910   2.435       .  S
Zr1909     O1915   2.366       .  S
O1910      H1953   0.990   1_655  S
Zr1912     O1913   2.437       .  S
Zr1912     O2231   2.373   1_455  S
O1913      H1957   0.990       .  S
O1915     Zr2228   2.374   1_655  S
O1916     Zr1936   2.381   1_565  S
O1916      H2259   0.963       .  S
O1917     Zr1929   2.447       .  S
O1917      C1919   1.288       .  A
O1918      C1919   1.285       .  A
C1919      C2058   1.475       .  S
O1920      C1922   1.289       .  A
O1921     Zr1935   2.422       .  S
O1921      C1922   1.286       .  A
C1922      C2106   1.481       .  S
O1923     Zr1932   2.438       .  S
O1923      C1925   1.287       .  A
O1924      C1925   1.286       .  A
C1925      C2025   1.470       .  S
O1926      C1928   1.287       .  A
O1927     Zr2251   2.432       .  S
O1927      C1928   1.288       .  A
C1928      C2145   1.483       .  S
Zr1929     O1930   2.437       .  S
Zr1929     O1931   2.434       .  S
Zr1929     O2253   2.367       .  S
O1930      H1950   0.990       .  S
O1930      H1955   0.990       .  S
O1931      H1951   0.990       .  S
Zr1932     O1933   2.433       .  S
Zr1932     O1934   2.434       .  S
Zr1932     O1937   2.370   1_554  S
O1934      H1948   0.990       .  S
O1934      H1958   0.990       .  S
Zr1935     O2243   2.424   1_554  S
Zr1935     O1938   2.378   1_554  S
Zr1935     O1940   2.386       .  S
Zr1935     O2257   2.386   1_554  S
Zr1936     O2217   2.421   1_545  S
Zr1936     O1939   2.385   1_545  S
Zr1936     O2258   2.385       .  S
O1937     Zr2245   2.370       .  S
O1937      H2261   0.964       .  S
O1940      H1944   0.965       .  S
O1941     Zr2251   2.386       .  S
O1941      H1946   0.965       .  S
O1942     Zr2252   2.385   1_554  S
H1943      O2232   0.964   1_556  S
H1945      O2253   0.966       .  S
O1959     Zr1971   2.446       .  S
O1959      C1961   1.289       .  A
O1960     Zr1997   2.424       .  S
O1960      C1961   1.286       .  A
C1961      C2202   1.483       .  S
O1962     Zr1974   2.431       .  S
O1962      C1964   1.285       .  A
O1963     Zr1998   2.428       .  S
O1963      C1964   1.287       .  A
C1964      C2178   1.486       .  S
O1965     Zr1974   2.426       .  S
O1965      C1967   1.285       .  A
O1966     Zr1997   2.430       .  S
O1966      C1967   1.288       .  A
C1967      C2130   1.477       .  S
O1968     Zr1971   2.439       .  S
O1968      C1970   1.288       .  A
O1969     Zr1998   2.435       .  S
O1969      C1970   1.289       .  A
C1970      C2073   1.481       .  S
Zr1971     O1972   2.434       .  S
Zr1971     O1973   2.435       .  S
Zr1971     O1977   2.370       .  S
Zr1971     O1978   2.374       .  S
Zr1971     O2001   2.377       .  S
Zr1971     O2003   2.369       .  S
O1972      H2015   0.989       .  S
O1973      H2014   0.990       .  S
O1973      H2018   0.990       .  S
Zr1974     O1975   2.433       .  S
Zr1974     O1976   2.434       .  S
Zr1974     O1978   2.364       .  S
Zr1974     O1977   2.370       .  S
Zr1974     O2002   2.373       .  S
Zr1974     O2004   2.367       .  S
O1975      H2016   0.989       .  S
O1975      H2019   0.990       .  S
O1976      H2009   0.990       .  S
O1977     Zr1997   2.381       .  S
O1978     Zr1998   2.382       .  S
O1978      H2005   0.966       .  S
O1979     Zr1991   2.446       .  S
O1979      C1981   1.289       .  A
O1980     Zr1998   2.424       .  S
O1980      C1981   1.286       .  A
C1981      C2034   1.483       .  S
O1982     Zr1994   2.444       .  S
O1982      C1984   1.289       .  A
O1983     Zr1997   2.428       .  S
O1983      C1984   1.288       .  A
C1984      C2154   1.487       .  S
O1985     Zr1994   2.440       .  S
O1985      C1987   1.289       .  A
O1986     Zr1998   2.426       .  S
O1986      C1987   1.287       .  A
C1987      C2049   1.485       .  S
O1988     Zr1991   2.435       .  S
O1988      C1990   1.287       .  A
O1989     Zr1997   2.433       .  S
O1989      C1990   1.289       .  A
C1990      C2097   1.487       .  S
Zr1991     O1992   2.436       .  S
Zr1991     O1993   2.435       .  S
Zr1991     O1999   2.368       .  S
Zr1991     O2000   2.373       .  S
Zr1991     O2003   2.373       .  S
Zr1991     O2001   2.372       .  S
O1992      H2012   0.990       .  S
O1992      H2017   0.990       .  S
O1993      H2013   0.990       .  S
Zr1994     O1995   2.436       .  S
Zr1994     O1996   2.433       .  S
Zr1994     O2000   2.368       .  S
Zr1994     O1999   2.367       .  S
Zr1994     O2004   2.374       .  S
Zr1994     O2002   2.368       .  S
O1995      H2011   0.990       .  S
O1996      H2010   0.990       .  S
O1996      H2020   0.990       .  S
Zr1997     O2000   2.380       .  S
Zr1997     O2002   2.386       .  S
Zr1997     O2003   2.389       .  S
Zr1998     O1999   2.386       .  S
Zr1998     O2001   2.387       .  S
Zr1998     O2004   2.383       .  S
O1999      H2007   0.965       .  S
O2002      H2006   0.966       .  S
O2003      H2008   0.965       .  S
C2021      C2022   1.400       .  A
C2021      C2026   1.396       .  A
C2021      H2031   1.084       .  S
C2022      C2027   1.475       .  S
C2022      C2023   1.413       .  A
C2023      C2024   1.401       .  A
C2023      S2028   1.803       .  S
C2024      C2025   1.403       .  A
C2024      H2029   1.084       .  S
C2025      C2026   1.412       .  A
C2026      S2030   1.803       .  S
C2027      C2032   1.407       .  A
C2027      C2036   1.399       .  A
S2028      H2044   1.405       .  S
S2030      H2041   1.406       .  S
C2032      C2033   1.402       .  A
C2032      S2037   1.806       .  S
C2033      C2034   1.407       .  A
C2033      H2038   1.083       .  S
C2034      C2035   1.418       .  A
C2035      C2036   1.399       .  A
C2035      S2039   1.798       .  S
C2036      H2040   1.084       .  S
S2037      H2042   1.407       .  S
S2039      H2043   1.407       .  S
C2045      C2046   1.402       .  A
C2045      C2050   1.402       .  A
C2045      H2055   1.084       .  S
C2046      C2051   1.477       .  S
C2046      C2047   1.410       .  A
C2047      C2048   1.396       .  A
C2047      S2052   1.806       .  S
C2048      C2049   1.407       .  A
C2048      H2053   1.084       .  S
C2049      C2050   1.418       .  A
C2050      S2054   1.804       .  S
C2051      C2056   1.409       .  A
C2051      C2060   1.402       .  A
S2052      H2068   1.405       .  S
S2054      H2065   1.407       .  S
C2056      C2057   1.400       .  A
C2056      S2061   1.807       .  S
C2057      C2058   1.405       .  A
C2057      H2062   1.083       .  S
C2058      C2059   1.414       .  A
C2059      C2060   1.399       .  A
C2059      S2063   1.802       .  S
C2060      H2064   1.084       .  S
S2061      H2066   1.407       .  S
S2063      H2067   1.407       .  S
C2069      C2070   1.402       .  A
C2069      C2074   1.404       .  A
C2069      H2079   1.083       .  S
C2070      C2075   1.480       .  S
C2070      C2071   1.413       .  A
C2071      C2072   1.400       .  A
C2071      S2076   1.806       .  S
C2072      C2073   1.404       .  A
C2072      H2077   1.084       .  S
C2073      C2074   1.414       .  A
C2074      S2078   1.807       .  S
C2075      C2080   1.410       .  A
C2075      C2084   1.400       .  A
S2076      H2092   1.403       .  S
S2078      H2089   1.407       .  S
C2080      C2081   1.406       .  A
C2080      S2085   1.806       .  S
C2081      C2082   1.405       .  A
C2081      H2086   1.083       .  S
C2082      C2083   1.413       .  A
C2083      C2084   1.398       .  A
C2083      S2087   1.801       .  S
C2084      H2088   1.084       .  S
S2085      H2090   1.407       .  S
S2087      H2091   1.406       .  S
C2093      C2094   1.399       .  A
C2093      C2098   1.397       .  A
C2093      H2103   1.084       .  S
C2094      C2099   1.479       .  S
C2094      C2095   1.411       .  A
C2095      C2096   1.402       .  A
C2095      S2100   1.803       .  S
C2096      C2097   1.407       .  A
C2096      H2101   1.084       .  S
C2097      C2098   1.420       .  A
C2098      S2102   1.803       .  S
C2099      C2104   1.409       .  A
C2099      C2108   1.400       .  A
S2100      H2116   1.405       .  S
S2102      H2113   1.408       .  S
C2104      C2105   1.403       .  A
C2104      S2109   1.807       .  S
C2105      C2106   1.405       .  A
C2105      H2110   1.083       .  S
C2106      C2107   1.415       .  A
C2107      C2108   1.403       .  A
C2107      S2111   1.807       .  S
C2108      H2112   1.083       .  S
S2109      H2114   1.407       .  S
S2111      H2115   1.407       .  S
C2117      C2118   1.401       .  A
C2117      C2122   1.400       .  A
C2117      H2127   1.084       .  S
C2118      C2123   1.475       .  S
C2118      C2119   1.409       .  A
C2119      C2120   1.396       .  A
C2119      S2124   1.805       .  S
C2120      C2121   1.407       .  A
C2120      H2125   1.084       .  S
C2121      C2122   1.417       .  A
C2122      S2126   1.798       .  S
C2123      C2128   1.409       .  A
C2123      C2132   1.397       .  A
S2124      H2140   1.406       .  S
S2126      H2137   1.407       .  S
C2128      C2129   1.402       .  A
C2128      S2133   1.806       .  S
C2129      C2130   1.405       .  A
C2129      H2134   1.083       .  S
C2130      C2131   1.417       .  A
C2131      C2132   1.395       .  A
C2131      S2135   1.802       .  S
C2132      H2136   1.084       .  S
S2133      H2138   1.407       .  S
S2135      H2139   1.405       .  S
C2141      C2142   1.403       .  A
C2141      C2146   1.403       .  A
C2141      H2151   1.084       .  S
C2142      C2147   1.482       .  S
C2142      C2143   1.411       .  A
C2143      C2144   1.398       .  A
C2143      S2148   1.805       .  S
C2144      C2145   1.406       .  A
C2144      H2149   1.084       .  S
C2145      C2146   1.415       .  A
C2146      S2150   1.803       .  S
C2147      C2152   1.408       .  A
C2147      C2156   1.400       .  A
S2148      H2164   1.406       .  S
S2150      H2161   1.407       .  S
C2152      C2153   1.403       .  A
C2152      S2157   1.804       .  S
C2153      C2154   1.407       .  A
C2153      H2158   1.083       .  S
C2154      C2155   1.418       .  A
C2155      C2156   1.401       .  A
C2155      S2159   1.802       .  S
C2156      H2160   1.084       .  S
S2157      H2162   1.406       .  S
S2159      H2163   1.407       .  S
C2165      C2166   1.402       .  A
C2165      C2170   1.399       .  A
C2165      H2175   1.084       .  S
C2166      C2171   1.477       .  S
C2166      C2167   1.411       .  A
C2167      C2168   1.399       .  A
C2167      S2172   1.806       .  S
C2168      C2169   1.406       .  A
C2168      H2173   1.084       .  S
C2169      C2170   1.414       .  A
C2170      S2174   1.804       .  S
C2171      C2176   1.408       .  A
C2171      C2180   1.398       .  A
S2172      H2188   1.405       .  S
S2174      H2185   1.407       .  S
C2176      C2177   1.402       .  A
C2176      S2181   1.806       .  S
C2177      C2178   1.407       .  A
C2177      H2182   1.082       .  S
C2178      C2179   1.420       .  A
C2179      C2180   1.401       .  A
C2179      S2183   1.810       .  S
C2180      H2184   1.083       .  S
S2181      H2186   1.407       .  S
S2183      H2187   1.406       .  S
C2189      C2190   1.400       .  A
C2189      C2194   1.398       .  A
C2189      H2199   1.084       .  S
C2190      C2195   1.475       .  S
C2190      C2191   1.411       .  A
C2191      C2192   1.398       .  A
C2191      S2196   1.803       .  S
C2192      C2193   1.402       .  A
C2192      H2197   1.084       .  S
C2193      C2194   1.415       .  A
C2194      S2198   1.804       .  S
C2195      C2200   1.407       .  A
C2195      C2204   1.398       .  A
S2196      H2212   1.405       .  S
S2198      H2209   1.407       .  S
C2200      C2201   1.403       .  A
C2200      S2205   1.806       .  S
C2201      C2202   1.406       .  A
C2201      H2206   1.083       .  S
C2202      C2203   1.417       .  A
C2203      C2204   1.398       .  A
C2203      S2207   1.798       .  S
C2204      H2208   1.084       .  S
S2205      H2210   1.407       .  S
S2207      H2211   1.403       .  S
O2213     Zr2225   2.434   1_655  S
O2213      C2215   1.287       .  A
O2214      C2215   1.285       .  A
C2215      C2437   1.476       .  S
O2216      C2218   1.289       .  A
O2217      C2218   1.285       .  A
C2218      C2398   1.474       .  S
O2219     Zr2228   2.440   1_655  S
O2219      C2221   1.287       .  A
O2220      C2221   1.283       .  A
C2221      C2509   1.469       .  S
O2222      C2224   1.287       .  A
O2223     Zr2252   2.429   1_565  S
O2223      C2224   1.287       .  A
C2224      C2485   1.481       .  S
Zr2225     O2226   2.434       .  S
Zr2225     O2231   2.368   1_456  S
O2226      H2269   0.990       .  S
Zr2228     O2229   2.437   1_455  S
O2229      H2273   0.990   1_655  S
O2232     Zr2252   2.378   1_564  S
O2233     Zr2245   2.444       .  S
O2233      C2235   1.288       .  A
O2234      C2235   1.287       .  A
C2235      C2374   1.478       .  S
O2236      C2238   1.288       .  A
O2237     Zr2251   2.421       .  S
O2237      C2238   1.286       .  A
C2238      C2422   1.479       .  S
O2239     Zr2248   2.438       .  S
O2239      C2241   1.287       .  A
O2240      C2241   1.285       .  A
C2241      C2341   1.467       .  S
O2242      C2244   1.288       .  A
O2243      C2244   1.286       .  A
C2244      C2461   1.480       .  S
Zr2245     O2246   2.435       .  S
Zr2245     O2247   2.435       .  S
O2246      H2266   0.990       .  S
O2246      H2271   0.990       .  S
O2247      H2267   0.990       .  S
Zr2248     O2249   2.434       .  S
Zr2248     O2250   2.434       .  S
Zr2248     O2253   2.371       .  S
O2250      H2264   0.990       .  S
O2250      H2274   0.990       .  S
Zr2251     O2254   2.376       .  S
Zr2251     O2256   2.390       .  S
Zr2252     O2255   2.383       .  S
O2256      H2260   0.966       .  S
O2257      H2262   0.966       .  S
O2275     Zr2287   2.442       .  S
O2275      C2277   1.288       .  A
O2276     Zr2313   2.430       .  S
O2276      C2277   1.287       .  A
C2277      C2518   1.482       .  S
O2278     Zr2290   2.443       .  S
O2278      C2280   1.288       .  A
O2279     Zr2314   2.426       .  S
O2279      C2280   1.288       .  A
C2280      C2494   1.489       .  S
O2281     Zr2290   2.433       .  S
O2281      C2283   1.286       .  A
O2282     Zr2313   2.421       .  S
O2282      C2283   1.287       .  A
C2283      C2446   1.476       .  S
O2284     Zr2287   2.436       .  S
O2284      C2286   1.287       .  A
O2285     Zr2314   2.426       .  S
O2285      C2286   1.288       .  A
C2286      C2389   1.479       .  S
Zr2287     O2288   2.435       .  S
Zr2287     O2289   2.436       .  S
Zr2287     O2293   2.369       .  S
Zr2287     O2294   2.372       .  S
Zr2287     O2317   2.373       .  S
Zr2287     O2319   2.369       .  S
O2288      H2331   0.990       .  S
O2289      H2330   0.990       .  S
O2289      H2334   0.990       .  S
Zr2290     O2291   2.433       .  S
Zr2290     O2292   2.435       .  S
Zr2290     O2294   2.365       .  S
Zr2290     O2293   2.375       .  S
Zr2290     O2318   2.371       .  S
Zr2290     O2320   2.369       .  S
O2291      H2332   0.989       .  S
O2291      H2335   0.990       .  S
O2292      H2325   0.990       .  S
O2293     Zr2313   2.382       .  S
O2294     Zr2314   2.382       .  S
O2294      H2321   0.966       .  S
O2295     Zr2307   2.439       .  S
O2295      C2297   1.287       .  A
O2296     Zr2314   2.418       .  S
O2296      C2297   1.285       .  A
C2297      C2350   1.476       .  S
O2298     Zr2310   2.436       .  S
O2298      C2300   1.287       .  A
O2299     Zr2313   2.428       .  S
O2299      C2300   1.288       .  A
C2300      C2470   1.481       .  S
O2301     Zr2310   2.443       .  S
O2301      C2303   1.289       .  A
O2302     Zr2314   2.431       .  S
O2302      C2303   1.287       .  A
C2303      C2365   1.492       .  S
O2304     Zr2307   2.436       .  S
O2304      C2306   1.286       .  A
O2305     Zr2313   2.432       .  S
O2305      C2306   1.289       .  A
C2306      C2413   1.489       .  S
Zr2307     O2308   2.435       .  S
Zr2307     O2309   2.435       .  S
Zr2307     O2315   2.371       .  S
Zr2307     O2316   2.370       .  S
Zr2307     O2319   2.368       .  S
Zr2307     O2317   2.369       .  S
O2308      H2328   0.990       .  S
O2308      H2333   0.990       .  S
O2309      H2329   0.990       .  S
Zr2310     O2311   2.433       .  S
Zr2310     O2312   2.434       .  S
Zr2310     O2316   2.372       .  S
Zr2310     O2315   2.368       .  S
Zr2310     O2320   2.368       .  S
Zr2310     O2318   2.367       .  S
O2311      H2327   0.990       .  S
O2312      H2326   0.990       .  S
O2312      H2336   0.990       .  S
Zr2313     O2316   2.378       .  S
Zr2313     O2318   2.386       .  S
Zr2313     O2319   2.381       .  S
Zr2314     O2315   2.383       .  S
Zr2314     O2317   2.384       .  S
Zr2314     O2320   2.377       .  S
O2315      H2323   0.965       .  S
O2318      H2322   0.966       .  S
O2319      H2324   0.965       .  S
C2337      C2338   1.401       .  A
C2337      C2342   1.395       .  A
C2337      H2347   1.084       .  S
C2338      C2343   1.472       .  S
C2338      C2339   1.412       .  A
C2339      C2340   1.398       .  A
C2339      S2344   1.804       .  S
C2340      C2341   1.402       .  A
C2340      H2345   1.084       .  S
C2341      C2342   1.412       .  A
C2342      S2346   1.803       .  S
C2343      C2348   1.407       .  A
C2343      C2352   1.399       .  A
S2344      H2360   1.404       .  S
S2346      H2357   1.407       .  S
C2348      C2349   1.401       .  A
C2348      S2353   1.806       .  S
C2349      C2350   1.405       .  A
C2349      H2354   1.083       .  S
C2350      C2351   1.415       .  A
C2351      C2352   1.396       .  A
C2351      S2355   1.798       .  S
C2352      H2356   1.084       .  S
S2353      H2358   1.407       .  S
S2355      H2359   1.407       .  S
C2361      C2362   1.402       .  A
C2361      C2366   1.402       .  A
C2361      H2371   1.084       .  S
C2362      C2367   1.482       .  S
C2362      C2363   1.410       .  A
C2363      C2364   1.398       .  A
C2363      S2368   1.805       .  S
C2364      C2365   1.409       .  A
C2364      H2369   1.084       .  S
C2365      C2366   1.420       .  A
C2366      S2370   1.803       .  S
C2367      C2372   1.411       .  A
C2367      C2376   1.402       .  A
S2368      H2384   1.406       .  S
S2370      H2381   1.407       .  S
C2372      C2373   1.402       .  A
C2372      S2377   1.807       .  S
C2373      C2374   1.405       .  A
C2373      H2378   1.083       .  S
C2374      C2375   1.414       .  A
C2375      C2376   1.400       .  A
C2375      S2379   1.803       .  S
C2376      H2380   1.084       .  S
S2377      H2382   1.407       .  S
S2379      H2383   1.407       .  S
C2385      C2386   1.401       .  A
C2385      C2390   1.404       .  A
C2385      H2395   1.083       .  S
C2386      C2391   1.477       .  S
C2386      C2387   1.409       .  A
C2387      C2388   1.398       .  A
C2387      S2392   1.802       .  S
C2388      C2389   1.404       .  A
C2388      H2393   1.084       .  S
C2389      C2390   1.415       .  A
C2390      S2394   1.808       .  S
C2391      C2396   1.410       .  A
C2391      C2400   1.400       .  A
S2392      H2408   1.405       .  S
S2394      H2405   1.407       .  S
C2396      C2397   1.405       .  A
C2396      S2401   1.806       .  S
C2397      C2398   1.403       .  A
C2397      H2402   1.083       .  S
C2398      C2399   1.414       .  A
C2399      C2400   1.397       .  A
C2399      S2403   1.801       .  S
C2400      H2404   1.084       .  S
S2401      H2406   1.407       .  S
S2403      H2407   1.405       .  S
C2409      C2410   1.399       .  A
C2409      C2414   1.398       .  A
C2409      H2419   1.084       .  S
C2410      C2415   1.480       .  S
C2410      C2411   1.411       .  A
C2411      C2412   1.402       .  A
C2411      S2416   1.803       .  S
C2412      C2413   1.408       .  A
C2412      H2417   1.083       .  S
C2413      C2414   1.421       .  A
C2414      S2418   1.803       .  S
C2415      C2420   1.409       .  A
C2415      C2424   1.402       .  A
S2416      H2432   1.405       .  S
S2418      H2429   1.408       .  S
C2420      C2421   1.401       .  A
C2420      S2425   1.806       .  S
C2421      C2422   1.404       .  A
C2421      H2426   1.083       .  S
C2422      C2423   1.415       .  A
C2423      C2424   1.404       .  A
C2423      S2427   1.808       .  S
C2424      H2428   1.083       .  S
S2425      H2430   1.407       .  S
S2427      H2431   1.407       .  S
C2433      C2434   1.400       .  A
C2433      C2438   1.397       .  A
C2433      H2443   1.084       .  S
C2434      C2439   1.469       .  S
C2434      C2435   1.409       .  A
C2435      C2436   1.396       .  A
C2435      S2440   1.805       .  S
C2436      C2437   1.406       .  A
C2436      H2441   1.084       .  S
C2437      C2438   1.414       .  A
C2438      S2442   1.797       .  S
C2439      C2444   1.407       .  A
C2439      C2448   1.396       .  A
S2440      H2456   1.405       .  S
S2442      H2453   1.407       .  S
C2444      C2445   1.402       .  A
C2444      S2449   1.806       .  S
C2445      C2446   1.406       .  A
C2445      H2450   1.083       .  S
C2446      C2447   1.416       .  A
C2447      C2448   1.393       .  A
C2447      S2451   1.801       .  S
C2448      H2452   1.084       .  S
S2449      H2454   1.407       .  S
S2451      H2455   1.406       .  S
C2457      C2458   1.402       .  A
C2457      C2462   1.401       .  A
C2457      H2467   1.084       .  S
C2458      C2463   1.478       .  S
C2458      C2459   1.410       .  A
C2459      C2460   1.397       .  A
C2459      S2464   1.804       .  S
C2460      C2461   1.405       .  A
C2460      H2465   1.084       .  S
C2461      C2462   1.416       .  A
C2462      S2466   1.804       .  S
C2463      C2468   1.408       .  A
C2463      C2472   1.400       .  A
S2464      H2480   1.406       .  S
S2466      H2477   1.407       .  S
C2468      C2469   1.402       .  A
C2468      S2473   1.803       .  S
C2469      C2470   1.405       .  A
C2469      H2474   1.083       .  S
C2470      C2471   1.417       .  A
C2471      C2472   1.399       .  A
C2471      S2475   1.803       .  S
C2472      H2476   1.084       .  S
S2473      H2478   1.406       .  S
S2475      H2479   1.407       .  S
C2481      C2482   1.404       .  A
C2481      C2486   1.401       .  A
C2481      H2491   1.084       .  S
C2482      C2487   1.482       .  S
C2482      C2483   1.411       .  A
C2483      C2484   1.398       .  A
C2483      S2488   1.805       .  S
C2484      C2485   1.406       .  A
C2484      H2489   1.084       .  S
C2485      C2486   1.414       .  A
C2486      S2490   1.804       .  S
C2487      C2492   1.408       .  A
C2487      C2496   1.400       .  A
S2488      H2504   1.405       .  S
S2490      H2501   1.407       .  S
C2492      C2493   1.403       .  A
C2492      S2497   1.805       .  S
C2493      C2494   1.408       .  A
C2493      H2498   1.082       .  S
C2494      C2495   1.419       .  A
C2495      C2496   1.404       .  A
C2495      S2499   1.809       .  S
C2496      H2500   1.083       .  S
S2497      H2502   1.407       .  S
S2499      H2503   1.407       .  S
C2505      C2506   1.402       .  A
C2505      C2510   1.398       .  A
C2505      H2515   1.084       .  S
C2506      C2511   1.475       .  S
C2506      C2507   1.413       .  A
C2507      C2508   1.397       .  A
C2507      S2512   1.806       .  S
C2508      C2509   1.401       .  A
C2508      H2513   1.084       .  S
C2509      C2510   1.413       .  A
C2510      S2514   1.804       .  S
C2511      C2516   1.407       .  A
C2511      C2520   1.399       .  A
S2512      H2528   1.404       .  S
S2514      H2525   1.408       .  S
C2516      C2517   1.404       .  A
C2516      S2521   1.807       .  S
C2517      C2518   1.408       .  A
C2517      H2522   1.083       .  S
C2518      C2519   1.416       .  A
C2519      C2520   1.397       .  A
C2519      S2523   1.799       .  S
C2520      H2524   1.084       .  S
S2521      H2526   1.406       .  S
S2523      H2527   1.405       .  S
