geometry optimzed in LAMMPS
_audit_creation_date              2020-11-30 
_audit_creation_method            'lammps2cif' 
_symmetry_space_group_name_H-M    'P1' 
_symmetry_Int_Tables_number       1 
_symmetry_cell_setting            triclinic 
loop_ 
_symmetry_equiv_pos_as_xyz 
  x,y,z 
_cell_length_a                    42.87586836 
_cell_length_b                    40.977861843130086 
_cell_length_c                    36.667140266035915 
_cell_angle_alpha                 90.05938709112435 
_cell_angle_beta                  89.8511643054424 
_cell_angle_gamma                 89.44124576191277 
loop_ 
_atom_site_label 
_atom_site_type_symbol 
_atom_site_fract_x 
_atom_site_fract_y 
_atom_site_fract_z 
_atom_site_charge 
C1          C  0.95826741  0.05177191  0.11311646     0.03400
C2          C  0.96985479  0.07710706  0.13502629    -0.12800
C3          C  0.00217131  0.08047982  0.13922914     0.00900
C4          C  0.02256161  0.05973748  0.12047875    -0.11300
C5          C  0.01162837  0.03622050  0.09642463     0.03400
C6          C  0.97935119  0.03122484  0.09402294    -0.10700
H7          H  0.95399740  0.09415847  0.14824155     0.09000
H8          H  0.04740074  0.06454523  0.12159681     0.06500
H9          H  0.97052007  0.01269025  0.07581327     0.06300
O10         O  0.77256812  0.43802555  0.06441644    -0.78200
C11         C  0.75963858  0.40286281  0.94468486     0.82800
O12         O  0.86319512  0.45270508  0.98321341    -0.79400
O13         O  0.82724151  0.48613311  0.40530656    -0.80800
O14         O  0.75098271  0.04409262  0.98274854    -0.80600
O15         O  0.75121756  0.48828579  0.06742604    -0.79300
Zn16       Zn  0.79043839  0.43347712  0.01203247     1.55700
O17         O  0.75057399  0.01511317  0.42999110    -0.80700
Cd18       Cd  0.77665380  0.01241117  0.01974535     1.59700
Cd19       Cd  0.83405919  0.49062114  0.99071739     1.59600
O20         O  0.81520425  0.03627535  0.04583083    -0.80600
O21         O  0.79094974  0.47691359  0.99190166    -1.91200
Cd22       Cd  0.78638148  0.47609311  0.43629896     1.59900
O23         O  0.85069806  0.99781770  0.03494300    -0.80600
O24         O  0.76816696  0.42942301  0.42274993    -0.79300
C25         C  0.86051606  0.42400249  0.99528702     0.83300
C26         C  0.75736107  0.46028021  0.08196189     0.82900
O27         O  0.76551114  0.40239778  0.97894501    -0.78200
C28         C  0.74375306  0.04152767  0.94860097     0.83700
O29         O  0.83515774  0.41396686  0.00982867    -0.78300
C30         C  0.84169766  0.02274496  0.05246019     0.83900
C31         C  0.84850912  0.50638262  0.41418044     0.84200
O32         O  0.84867333  0.51911804  0.44558299    -0.80700
C33         C  0.75089608  0.37339622  0.42330379     0.03400
C34         C  0.73674089  0.34787858  0.44339160    -0.12800
C35         C  0.72791368  0.31833084  0.42629472     0.00900
C36         C  0.73422640  0.31452547  0.38856621    -0.11300
C37         C  0.74887476  0.33913912  0.36796047     0.03400
C38         C  0.75647137  0.36865478  0.38564403    -0.10700
H39         H  0.73181213  0.34885268  0.97525987     0.09000
H40         H  0.72825238  0.29186837  0.37519598     0.06500
H41         H  0.76824226  0.38752802  0.37038221     0.06300
C42         C  0.00009302  0.31078589  0.04378360     0.03400
C43         C  0.98698636  0.33073128  0.01649294    -0.12800
C44         C  0.95458705  0.33033600  0.01032665     0.00900
C45         C  0.93594576  0.30935467  0.03080294    -0.11300
C46         C  0.94814134  0.29106086  0.05943646     0.03400
C47         C  0.98049117  0.29129049  0.06545519    -0.10700
H48         H  0.00148569  0.34794348  0.00200515     0.09000
H49         H  0.91080355  0.31136646  0.02840722     0.06500
H50         H  0.99014091  0.27811112  0.08849680     0.06300
O51         O  0.17965110  0.19175268  0.10099723    -0.78200
C52         C  0.19353435  0.15815135  0.21979296     0.82800
O53         O  0.08745340  0.20277513  0.17812816    -0.79400
O54         O  0.12918476  0.24227686  0.25714214    -0.80800
O55         O  0.20395820  0.29621934  0.18050833    -0.80600
O56         O  0.19833859  0.24255921  0.09737718    -0.79300
Zn57       Zn  0.16197374  0.18756979  0.15259465     1.55700
O58         O  0.19968790  0.26990847  0.23401262    -0.80700
Cd59       Cd  0.17731348  0.26648136  0.14310337     1.59700
Cd60       Cd  0.11453086  0.24224885  0.17390491     1.59600
O61         O  0.14199296  0.29486169  0.11631916    -0.80600
O62         O  0.15859736  0.23084843  0.17318462    -1.91200
Cd63       Cd  0.16953538  0.23089761  0.22574177     1.59900
O64         O  0.10081718  0.26399549  0.12786837    -0.80600
O65         O  0.18766186  0.18376729  0.23906897    -0.79300
C66         C  0.09238992  0.17492461  0.16433296     0.83300
C67         C  0.19345971  0.21426356  0.08312387     0.82900
O68         O  0.18778321  0.15752574  0.18557833    -0.78200
C69         C  0.20951593  0.29403844  0.21508905     0.83700
O70         O  0.11890259  0.16644271  0.15127894    -0.78300
C71         C  0.11359705  0.28692511  0.11058547     0.83900
C72         C  0.10639789  0.26113118  0.24837637     0.84200
O73         O  0.10327359  0.27154959  0.21611473    -0.80700
C74         C  0.20527002  0.12749890  0.23785868     0.03400
C75         C  0.21907882  0.10170698  0.21731590    -0.12800
C76         C  0.22737092  0.07168928  0.23393193     0.00900
C77         C  0.22091588  0.06776166  0.27161625    -0.11300
C78         C  0.20692040  0.09276642  0.29268287     0.03400
C79         C  0.19974443  0.12268692  0.27546543    -0.10700
H80         H  0.22348873  0.10508031  0.18847710     0.09000
H81         H  0.22652858  0.04479454  0.28473032     0.06500
H82         H  0.18837828  0.14188250  0.29105202     0.06300
C83         C  0.95548071  0.24146074  0.37072779     0.03400
C84         C  0.97502415  0.26083533  0.34876884    -0.12800
C85         C  0.00764386  0.25833353  0.35183689     0.00900
C86         C  0.02020831  0.23849043  0.37899988    -0.11300
C87         C  0.00146693  0.21872117  0.40076624     0.03400
C88         C  0.96888119  0.21985924  0.39628829    -0.10700
H89         H  0.96488251  0.27588597  0.32751285     0.09000
H90         H  0.04530084  0.23505142  0.38001835     0.06500
H91         H  0.95423156  0.20324946  0.41143586     0.06300
O92         O  0.77049392  0.38991797  0.22802002    -0.78200
C93         C  0.75927967  0.33270242  0.32927845     0.82800
O94         O  0.86838643  0.33795495  0.23494248    -0.79400
O95         O  0.81115753  0.25443004  0.30272493    -0.80800
O96         O  0.75607708  0.27599313  0.18043832    -0.80600
O97         O  0.76604048  0.36278234  0.17544722    -0.79300
Zn98       Zn  0.79525129  0.35830742  0.26129751     1.55700
O99         O  0.75158858  0.24991616  0.23417305    -0.80700
Cd100      Cd  0.78517671  0.31606841  0.18794364     1.59700
Cd101      Cd  0.83989625  0.29964565  0.23624299     1.59600
O102        O  0.82561832  0.30827363  0.15513411    -0.80600
O103        O  0.79679624  0.31492464  0.24037421    -1.91200
Cd104      Cd  0.77692863  0.28053081  0.27141157     1.59900
O105        O  0.84903353  0.27272987  0.19134368    -0.80600
O106        O  0.75307149  0.30514775  0.31418923    -0.79300
C107        C  0.86575428  0.36592909  0.24910601     0.83300
C108        C  0.76243839  0.38895840  0.19440994     0.82900
O109        O  0.77571356  0.35420013  0.31273668    -0.78200
C110        C  0.74628701  0.25190942  0.19956146     0.83700
O111        O  0.83998287  0.37653041  0.26254569    -0.78300
C112        C  0.84764776  0.28774029  0.16133324     0.83900
C113        C  0.84080817  0.25786636  0.30299686     0.84200
O114        O  0.85465129  0.27478709  0.27939803    -0.80700
C115        C  0.75055799  0.41962619  0.17632184     0.03400
C116        C  0.73647226  0.44532223  0.19673133    -0.12800
C117        C  0.72751655  0.47504789  0.17984149     0.00900
C118        C  0.73373528  0.47886108  0.14208193    -0.11300
C119        C  0.74806206  0.45403558  0.12108970     0.03400
C120        C  0.75583478  0.42433337  0.13856913    -0.10700
H121        H  0.73227670  0.44204582  0.22562814     0.09000
H122        H  0.72763499  0.50162067  0.12880978     0.06500
H123        H  0.76740040  0.40521802  0.12305595     0.06300
C124        C  0.00692123  0.47736170  0.30477764     0.03400
C125        C  0.97963110  0.00850948  0.32959512    -0.12800
C126        C  0.95425247  0.49463743  0.32245380     0.00900
C127        C  0.94248760  0.47252697  0.29735237    -0.11300
C128        C  0.96187933  0.45249166  0.27637029     0.03400
C129        C  0.99435759  0.45424287  0.28059755    -0.10700
H130        H  0.99056145  0.02437634  0.34930379     0.09000
H131        H  0.91748716  0.46872486  0.29627115     0.06500
H132        H  0.00956294  0.43758789  0.26581081     0.06300
O133        O  0.18996216  0.14465582  0.43403170    -0.78200
C134        C  0.19716579  0.08656656  0.33156300     0.82800
O135        O  0.09228475  0.09657991  0.43486847    -0.79400
O136        O  0.14498177  0.00810752  0.36259363    -0.80800
O137        O  0.20531480  0.03096814  0.48055094    -0.80600
O138        O  0.19350639  0.11727234  0.48657120    -0.79300
Zn139      Zn  0.16411887  0.11401615  0.40123190     1.55700
O140        O  0.20745052  0.00351103  0.42748379    -0.80700
Cd141      Cd  0.17566067  0.07072660  0.47316715     1.59700
Cd142      Cd  0.12044071  0.05807215  0.42507481     1.59600
O143        O  0.13598917  0.06039953  0.50525739    -0.80600
O144        O  0.16357792  0.07071655  0.42114326    -1.91200
Cd145      Cd  0.18112136  0.03445340  0.39044233     1.59900
O146        O  0.11509920  0.02609886  0.46594998    -0.80600
O147        O  0.20290500  0.05848197  0.34603321    -0.79300
C148        C  0.09446549  0.12452317  0.42052696     0.83300
C149        C  0.19742681  0.14341515  0.46783917     0.82900
O150        O  0.18197022  0.10895520  0.34893560    -0.78200
C151        C  0.21387748  0.00600705  0.46182742     0.83700
O152        O  0.11925455  0.13358448  0.40386258    -0.78300
C153        C  0.11557443  0.03903179  0.49720492     0.83900
C154        C  0.11628119  0.01666774  0.35930240     0.84200
O155        O  0.10426303  0.03845159  0.37937342    -0.80700
C156        C  0.20879702  0.17374824  0.48656970     0.03400
C157        C  0.20337267  0.17773438  0.52436677    -0.12800
C158        C  0.20234096  0.20783615  0.04397137     0.00900
C159        C  0.22423834  0.23246480  0.52231497    -0.11300
C160        C  0.23057768  0.22933877  0.48443123     0.03400
C161        C  0.22228953  0.19984917  0.46684173    -0.10700
H162        H  0.19213105  0.15831885  0.53932200     0.09000
H163        H  0.22976575  0.25505920  0.53608217     0.06500
H164        H  0.22656178  0.19705718  0.43787792     0.06300
C165        C  0.49849716  0.32045585  0.09023681     0.03400
C166        C  0.47877347  0.30116250  0.06832132    -0.12800
C167        C  0.44629346  0.30242781  0.07357556     0.00900
C168        C  0.43411993  0.32303510  0.10033701    -0.11300
C169        C  0.45318722  0.34188308  0.12237461     0.03400
C170        C  0.48554758  0.34087818  0.11732113    -0.10700
H171        H  0.48865523  0.28545295  0.04740657     0.09000
H172        H  0.40900643  0.32582148  0.10293281     0.06500
H173        H  0.50042731  0.35619085  0.13377936     0.06300
O174        O  0.69234327  0.15518760  0.97902771    -0.78200
C175        C  0.69796629  0.21067755  0.08281769     0.82800
O176        O  0.59076111  0.19825860  0.99626355    -0.79400
O177        O  0.64541988  0.29326780  0.04254499    -0.80800
O178        O  0.70026821  0.26776683  0.42797651    -0.80600
O179        O  0.68740079  0.18065350  0.42328558    -0.79300
Zn180      Zn  0.66594800  0.18250684  0.01361362     1.55700
O181        O  0.70859350  0.29034435  0.98457298    -0.80700
Cd182      Cd  0.67010790  0.22841375  0.43732890     1.59700
Cd183      Cd  0.61890022  0.23629159  0.00275474     1.59600
O184        O  0.62856784  0.23977644  0.40813220    -0.80600
O185        O  0.66221680  0.22583143  0.99422146    -1.91200
Cd186      Cd  0.68151561  0.26214957  0.02216081     1.59900
O187        O  0.60409094  0.26972778  0.44991211    -0.80600
O188        O  0.70153179  0.23927295  0.06880663    -0.79300
C189        C  0.59612610  0.16857674  0.00295454     0.83300
C190        C  0.69412533  0.15547362  0.94418974     0.82900
O191        O  0.68458778  0.18761155  0.06512998    -0.78200
C192        C  0.71145574  0.28922321  0.94956936     0.83700
O193        O  0.62329301  0.15863549  0.01246466    -0.78300
C194        C  0.60604904  0.25878609  0.41770399     0.83900
C195        C  0.62055861  0.28242322  0.05728507     0.84200
O196        O  0.61362526  0.25273105  0.05410589    -0.80700
C197        C  0.70427177  0.12383200  0.42411550     0.03400
C198        C  0.69819542  0.11863892  0.38662213    -0.12800
C199        C  0.70500583  0.08845792  0.36938337     0.00900
C200        C  0.71908568  0.06353198  0.39045578    -0.11300
C201        C  0.72603953  0.06773785  0.42802925     0.03400
C202        C  0.71818743  0.09804071  0.44451028    -0.10700
H203        H  0.68681735  0.13781673  0.37113906     0.09000
H204        H  0.72441599  0.04042460  0.37741131     0.06500
H205        H  0.72374992  0.10191310  0.97432554     0.06300
C206        C  0.45398159  0.05928661  0.04299210     0.03400
C207        C  0.47286561  0.04248647  0.06840597    -0.12800
C208        C  0.50520310  0.04041207  0.06304539     0.00900
C209        C  0.51806697  0.05303712  0.03131391    -0.11300
C210        C  0.50100324  0.07497531  0.00991411     0.03400
C211        C  0.46834832  0.07709959  0.01476123    -0.10700
H212        H  0.46267252  0.03285313  0.09318666     0.09000
H213        H  0.54329919  0.05236923  0.02892286     0.06500
H214        H  0.45464587  0.09385270  0.99835222     0.06300
O215        O  0.26332449  0.40632402  0.18552588    -0.78200
C216        C  0.25408834  0.46520435  0.08228073     0.82800
O217        O  0.35754093  0.44895177  0.18516384    -0.79400
O218        O  0.31116882  0.04289099  0.11215986    -0.80800
O219        O  0.25384885  0.02026512  0.23255579    -0.80600
O220        O  0.26392131  0.43299891  0.23888940    -0.79300
Zn221      Zn  0.28704218  0.43644607  0.15069144     1.55700
O222        O  0.25010257  0.04685078  0.17903681    -0.80700
Cd223      Cd  0.28065000  0.48017764  0.22420695     1.59700
Cd224      Cd  0.33218240  0.48836882  0.17209482     1.59600
O225        O  0.32240959  0.49283581  0.25202265    -0.80600
O226        O  0.28872564  0.47913124  0.17139923    -1.91200
Cd227      Cd  0.27655893  0.01614757  0.14175813     1.59900
O228        O  0.34222722  0.52343207  0.20825509    -0.80600
O229        O  0.25053718  0.49387247  0.09636442    -0.79300
C230        C  0.35610476  0.42381240  0.16535607     0.83300
C231        C  0.25829233  0.40718427  0.21999189     0.82900
O232        O  0.26759016  0.44196533  0.09985009    -0.78200
C233        C  0.24429836  0.04469213  0.21359738     0.83700
O234        O  0.33155147  0.41693865  0.14725361    -0.78300
C235        C  0.34283122  0.51315073  0.24070930     0.83900
C236        C  0.34034295  0.03643051  0.10893432     0.84200
O237        O  0.35401246  0.01659059  0.13004889    -0.80700
C238        C  0.24755822  0.37655468  0.23863745     0.03400
C239        C  0.23386006  0.35079185  0.21855109    -0.12800
C240        C  0.22646599  0.32073131  0.23528874     0.00900
C241        C  0.23376661  0.31665048  0.27277205    -0.11300
C242        C  0.24759688  0.34171046  0.29352678     0.03400
C243        C  0.25381040  0.37172034  0.27608850    -0.10700
H244        H  0.22877454  0.35424845  0.18989097     0.09000
H245        H  0.22882939  0.29363270  0.28594855     0.06500
H246        H  0.26505794  0.39095474  0.29130400     0.06300
C247        C  0.45706788  0.24069431  0.29590895     0.03400
C248        C  0.46997901  0.21944318  0.26972801    -0.12800
C249        C  0.50243450  0.21811775  0.26474352     0.00900
C250        C  0.52153514  0.23791309  0.28597588    -0.11300
C251        C  0.50938605  0.25864985  0.31272389     0.03400
C252        C  0.47680119  0.26036237  0.31720779    -0.10700
H253        H  0.45512097  0.20277102  0.25499026     0.09000
H254        H  0.54655117  0.23396659  0.28474148     0.06500
H255        H  0.46684356  0.27547112  0.33862251     0.06300
O256        O  0.27078133  0.35919217  0.35004498    -0.78200
C257        C  0.26280750  0.39297208  0.47173759     0.78000
O258        O  0.36484740  0.35283641  0.42618793    -0.79400
O259        O  0.32943928  0.30765862  0.50097207    -0.80800
O260        O  0.25211098  0.25471584  0.42972839    -0.80600
O261        O  0.25568696  0.30698347  0.34621263    -0.79300
Zn262      Zn  0.29008756  0.36467569  0.40136818     1.55700
O263        O  0.25724682  0.28048515  0.48349875    -0.80700
Cd264      Cd  0.27785274  0.28476558  0.39208616     1.59700
Cd265      Cd  0.33924847  0.31283642  0.41791931     1.59600
O266        O  0.31491776  0.25703262  0.36753665    -0.80600
O267        O  0.29502911  0.32161738  0.42134008    -1.91200
Cd268      Cd  0.28708177  0.32002611  0.47438072     1.59900
O269        O  0.35063025  0.29578141  0.36843694    -0.80600
O270        O  0.27051281  0.36744994  0.49028262    -0.79300
C271        C  0.35893054  0.38096391  0.41379816     0.83300
C272        C  0.25812964  0.33572810  0.33226313     0.82900
O273        O  0.26526467  0.39337185  0.43690304    -0.78200
C274        C  0.24717656  0.25646558  0.46446488     0.83700
O275        O  0.33238205  0.38820322  0.40003868    -0.78300
C276        C  0.34109170  0.26857091  0.35699367     0.83900
C277        C  0.35194061  0.28970063  0.48913807     0.84200
O278        O  0.35329379  0.28076169  0.45612316    -0.80700
C279        C  0.25256778  0.42386378  0.49087018     0.03400
C280        C  0.25838711  0.42825712  0.52853808    -0.12800
C281        C  0.24407389  0.45907559  0.04353275     0.00900
C282        C  0.23861622  0.48392064  0.52544371    -0.11300
C283        C  0.23211371  0.48040030  0.48767104     0.03400
C284        C  0.23954163  0.45026374  0.47082656    -0.10700
H285        H  0.26220388  0.40971038  0.04153208     0.09000
H286        H  0.23343091  0.50694426  0.53875590     0.06500
H287        H  0.23484639  0.44721903  0.44202524     0.06300
C288        C  0.49494665  0.50098727  0.35972983     0.03400
C289        C  0.48146897  0.47947753  0.38498615    -0.12800
C290        C  0.44889979  0.47668471  0.38686274     0.00900
C291        C  0.43018566  0.49620536  0.36459817    -0.11300
C292        C  0.44296916  0.51690983  0.33860594     0.03400
C293        C  0.47640549  0.00877301  0.34902207    -0.10700
H294        H  0.49621552  0.46431972  0.40205671     0.09000
H295        H  0.40517700  0.49236657  0.36461757     0.06500
H296        H  0.48464932  0.02557127  0.32841488     0.06300
O297        O  0.68015929  0.10459824  0.31308546    -0.78200
C298        C  0.69615238  0.13920448  0.19460536     0.82800
O299        O  0.58910311  0.09351547  0.23154580    -0.79400
O300        O  0.63191502  0.06249418  0.15489037    -0.80800
O301        O  0.70471307  0.99995190  0.23240239    -0.80600
O302        O  0.70040784  0.05398701  0.31567842    -0.79300
Zn303      Zn  0.66265476  0.10942892  0.26069335     1.55700
O304        O  0.70073418  0.02674970  0.17902720    -0.80700
Cd305      Cd  0.67841112  0.03048347  0.27047449     1.59700
Cd306      Cd  0.61638565  0.05359346  0.23446928     1.59600
O307        O  0.64227465  0.00429612  0.29846341    -0.80600
O308        O  0.66001298  0.06624904  0.23975928    -1.91200
Cd309      Cd  0.67219209  0.06756192  0.18756367     1.59900
O310        O  0.60004109  0.02972978  0.27731205    -0.80600
O311        O  0.69172531  0.11348841  0.17535365    -0.79300
C312        C  0.59323369  0.12179926  0.24439655     0.83300
C313        C  0.69505391  0.08211206  0.33041903     0.82900
O314        O  0.68893647  0.13996644  0.22850267    -0.78200
C315        C  0.71032868  0.00220770  0.19775495     0.83700
O316        O  0.61904545  0.13049727  0.25871102    -0.78300
C317        C  0.61280081  0.00992078  0.29904859     0.83900
C318        C  0.60956820  0.04256477  0.15993750     0.84200
O319        O  0.60784577  0.02652550  0.18926138    -0.80700
C320        C  0.70755872  0.16973684  0.17642865     0.03400
C321        C  0.72139426  0.19534543  0.19658021    -0.12800
C322        C  0.72939443  0.22517238  0.17961589     0.00900
C323        C  0.72237881  0.22924177  0.14213579    -0.11300
C324        C  0.70820469  0.20445948  0.12149501     0.03400
C325        C  0.70153100  0.17461502  0.13892449    -0.10700
H326        H  0.72611084  0.19193796  0.22533344     0.09000
H327        H  0.72771561  0.25211725  0.12886971     0.06500
H328        H  0.69005658  0.15556755  0.12364321     0.06300
C329        C  0.54624323  0.47669485  0.34090194    -0.26100
C330        C  0.53127441  0.98878650  0.35656554    -0.14100
C331        C  0.55385295  0.00888858  0.37278074     0.36500
C332        C  0.58358530  0.01129825  0.35687020    -0.25500
C333        C  0.59106453  0.99427910  0.32463797    -0.14800
C334        C  0.57757726  0.48058747  0.32981072     0.37600
N335        N  0.59375695  0.45497181  0.31057346    -0.89000
H336        H  0.53433654  0.45408270  0.33506989     0.18700
H337        H  0.59970348  0.02914596  0.36750080     0.18700
N338        N  0.54655649  0.02842967  0.40408769    -0.88000
H339        H  0.57968615  0.43435750  0.30849680     0.36100
H340        H  0.61300625  0.44813834  0.32636478     0.41200
H341        H  0.53943407  0.01285960  0.42502077     0.40800
H342        H  0.52784738  0.04389325  0.39758327     0.35700
C343        C  0.41253986  0.39512636  0.39685598    -0.26100
C344        C  0.38445731  0.40450314  0.41365953    -0.14100
C345        C  0.38165679  0.43548850  0.42995331     0.36500
C346        C  0.40640246  0.45749909  0.42649886    -0.25500
C347        C  0.43288373  0.44959732  0.40532646    -0.14800
C348        C  0.43642290  0.41749054  0.39169574     0.37600
N349        N  0.46254823  0.40775048  0.36964003    -0.89000
H350        H  0.41498929  0.37091332  0.38516115     0.18700
H351        H  0.40355816  0.48217932  0.43674135     0.18700
N352        N  0.35374593  0.44458602  0.44942576    -0.88000
H353        H  0.48288832  0.41045301  0.38490272     0.36100
H354        H  0.46362935  0.42283337  0.34669491     0.41200
H355        H  0.33557518  0.44612916  0.43054285     0.40800
H356        H  0.35596398  0.46789418  0.46071155     0.35700
C357        C  0.51416319  0.15962039  0.26101606    -0.26100
C358        C  0.51833986  0.19076548  0.24610039    -0.14100
C359        C  0.54524652  0.19702488  0.22504747     0.36500
C360        C  0.56955034  0.17396443  0.22405581    -0.25500
C361        C  0.56678305  0.14450847  0.24295420    -0.14800
C362        C  0.53833932  0.13647179  0.25975970     0.37600
N363        N  0.53487160  0.10579216  0.27798160    -0.89000
H364        H  0.49371738  0.15456637  0.27744146     0.18700
H365        H  0.59096061  0.17953056  0.20966251     0.18700
N366        N  0.54897811  0.22804063  0.20763443    -0.88000
H367        H  0.51569669  0.09394014  0.26666709     0.36100
H368        H  0.52993314  0.11041705  0.30545780     0.41200
H369        H  0.55269224  0.22390146  0.17981196     0.40800
H370        H  0.56897906  0.23897323  0.21815146     0.35700
C371        C  0.37188861  0.26466010  0.30061529    -0.26100
C372        C  0.36328792  0.25033493  0.33391672    -0.14100
C373        C  0.38397937  0.22786241  0.35059117     0.36500
C374        C  0.41372892  0.22265181  0.33570173    -0.25500
C375        C  0.42342551  0.23983364  0.30468409    -0.14800
C376        C  0.40177577  0.25970388  0.28596248     0.37600
N377        N  0.41032585  0.27691250  0.25354540    -0.89000
H378        H  0.35652484  0.28250090  0.28799589     0.18700
H379        H  0.43023102  0.20716895  0.35008614     0.18700
N380        N  0.37649738  0.21253843  0.38457085    -0.88000
H381        H  0.41761164  0.25979478  0.23407051     0.36100
H382        H  0.42915947  0.29199880  0.25954626     0.41200
H383        H  0.35577528  0.19964172  0.38115536     0.40800
H384        H  0.37272514  0.23060104  0.40426452     0.35700
C385        C  0.42566682  0.51582798  0.27488371    -0.26100
C386        C  0.42139407  0.52878558  0.30992502    -0.14100
C387        C  0.39182812  0.54222926  0.31953903     0.36500
C388        C  0.36629982  0.53764476  0.29633365    -0.25500
C389        C  0.37008447  0.52145477  0.26302844    -0.14800
C390        C  0.40030282  0.51209996  0.25120382     0.37600
N391        N  0.40467932  0.49618485  0.21653380    -0.89000
H392        H  0.44812656  0.50541906  0.26740332     0.18700
H393        H  0.34333345  0.54605403  0.30472452     0.18700
N394        N  0.38184205  0.03451029  0.37528855    -0.88000
H395        H  0.42789098  0.48869489  0.21315382     0.36100
H396        H  0.40036287  0.51344400  0.19615284     0.41200
H397        H  0.40768955  0.56204407  0.36758387     0.40800
H398        H  0.37221536  0.54469258  0.36966286     0.35700
C399        C  0.53837425  0.06816884  0.10671276    -0.26100
C400        C  0.52725536  0.03823020  0.09377029    -0.14100
C401        C  0.54351652  0.00923416  0.10231205     0.36500
C402        C  0.57066900  0.01092032  0.12395724    -0.25500
C403        C  0.58283081  0.04125388  0.13472729    -0.14800
C404        C  0.56623324  0.07010490  0.12590096     0.37600
N405        N  0.57698013  0.10183081  0.13605459    -0.89000
H406        H  0.52647299  0.09065930  0.09919786     0.18700
H407        H  0.58286447  0.98868117  0.13157917     0.18700
N408        N  0.53271329  0.97850860  0.08858003    -0.88000
H409        H  0.59872051  0.10565878  0.12395021     0.36100
H410        H  0.57934585  0.10274964  0.16434018     0.41200
H411        H  0.53467215  0.97902231  0.06015805     0.40800
H412        H  0.54719232  0.95949641  0.09757362     0.35700
C413        C  0.37179208  0.02945630  0.05347566    -0.26100
C414        C  0.36029481  0.05085534  0.08041397    -0.14100
C415        C  0.37694808  0.07954009  0.08811885     0.36500
C416        C  0.40671430  0.08402884  0.07239538    -0.25500
C417        C  0.41976555  0.06034453  0.04904933    -0.14800
C418        C  0.40140285  0.03393743  0.03788810     0.37600
N419        N  0.41383292  0.01023148  0.01290485    -0.89000
H420        H  0.35934875  0.00715901  0.04759312     0.18700
H421        H  0.42080086  0.10451296  0.08077229     0.18700
N422        N  0.36491465  0.10223936  0.11463290    -0.88000
H423        H  0.39872195  0.00886323  0.99063412     0.36100
H424        H  0.41402956  0.98751286  0.02586191     0.41200
H425        H  0.34415198  0.11199415  0.10421741     0.40800
H426        H  0.38017060  0.12178641  0.11779751     0.35700
C427        C  0.58650183  0.27651316  0.35683351    -0.26100
C428        C  0.58015551  0.26626584  0.39244066    -0.14100
C429        C  0.54868473  0.26175464  0.40322860     0.36500
C430        C  0.52494041  0.26384412  0.37736762    -0.25500
C431        C  0.53155850  0.27085151  0.34076282    -0.14800
C432        C  0.56240157  0.28030059  0.33129253     0.37600
N433        N  0.57021369  0.29214976  0.29553529    -0.89000
H434        H  0.61033476  0.28135573  0.34871173     0.18700
H435        H  0.50165111  0.25675650  0.38546874     0.18700
N436        N  0.54022422  0.25227291  0.43950164    -0.88000
H437        H  0.55007086  0.29615667  0.28014803     0.36100
H438        H  0.58016708  0.31515717  0.29877257     0.41200
H439        H  0.54676963  0.27059743  0.45767799     0.40800
H440        H  0.55198088  0.23060440  0.44590963     0.35700
C441        C  0.57312808  0.11717992  0.97953720    -0.26100
C442        C  0.56965895  0.14608521  0.99949838    -0.14100
C443        C  0.54001460  0.15474066  0.01368152     0.36500
C444        C  0.51524058  0.13277192  0.01061189    -0.25500
C445        C  0.51963736  0.10204093  0.99439792    -0.14800
C446        C  0.54834837  0.09532441  0.97633020     0.37600
N447        N  0.55351138  0.06557109  0.95647415    -0.89000
H448        H  0.59534081  0.11129338  0.96683455     0.18700
H449        H  0.49356113  0.13816269  0.02474043     0.18700
N450        N  0.53565357  0.18501347  0.03302771    -0.88000
H451        H  0.57081841  0.05210841  0.96994110     0.36100
H452        H  0.53333856  0.05152630  0.95654620     0.41200
H453        H  0.54931786  0.18395314  0.05658664     0.40800
H454        H  0.51251385  0.18773301  0.04166834     0.35700
C455        C  0.39704608  0.27198788  0.06698359    -0.26100
C456        C  0.42323814  0.28603370  0.04986543    -0.14100
C457        C  0.42202040  0.29288034  0.01220971     0.36500
C458        C  0.40847118  0.29343265  0.49906600    -0.25500
C459        C  0.37936833  0.28298506  0.51199564    -0.14800
C460        C  0.36826907  0.27009743  0.04896790     0.37600
N461        N  0.34072074  0.25968927  0.06787613    -0.89000
H462        H  0.39815381  0.26616384  0.09578759     0.18700
H463        H  0.41018295  0.30348619  0.47179747     0.18700
N464        N  0.44843536  0.30655084  0.99363753    -0.88000
H465        H  0.34600993  0.25362602  0.09486969     0.36100
H466        H  0.34156570  0.23749059  0.54332030     0.41200
H467        H  0.45196291  0.32995593  0.00413331     0.40800
H468        H  0.46110224  0.31614029  0.48235112     0.35700
C469        C  0.38697046  0.37353880  0.17643859    -0.26100
C470        C  0.38464588  0.40452993  0.16089535    -0.14100
C471        C  0.41004005  0.41760952  0.14142865     0.36500
C472        C  0.43626429  0.39784414  0.13452614    -0.25500
C473        C  0.43702601  0.36535865  0.14633356    -0.14800
C474        C  0.41323315  0.35392733  0.16987093     0.37600
N475        N  0.41404598  0.32157717  0.18493837    -0.89000
H476        H  0.36792967  0.36416982  0.19273581     0.18700
H477        H  0.45429536  0.40649507  0.11625264     0.18700
N478        N  0.40821969  0.45017737  0.12689995    -0.88000
H479        H  0.39642829  0.30809852  0.17248924     0.36100
H480        H  0.43525458  0.30985260  0.17922688     0.41200
H481        H  0.39069195  0.45052444  0.10712794     0.40800
H482        H  0.42895807  0.45616806  0.11353084     0.35700
C483        C  0.55116942  0.30511989  0.11284340    -0.26100
C484        C  0.53266410  0.31870057  0.08517591    -0.14100
C485        C  0.54659466  0.32781723  0.05199977     0.36500
C486        C  0.57830103  0.32097527  0.04594002    -0.25500
C487        C  0.59595940  0.30386148  0.07195835    -0.14800
C488        C  0.58262635  0.29725389  0.10651379     0.37600
N489        N  0.59966097  0.28039154  0.13461286    -0.89000
H490        H  0.54057433  0.29842226  0.13861393     0.18700
H491        H  0.58804897  0.32551634  0.01911987     0.18700
N492        N  0.52820663  0.34249789  0.02376122    -0.88000
H493        H  0.60020127  0.29570348  0.15742529     0.36100
H494        H  0.62290112  0.27666775  0.12691824     0.41200
H495        H  0.53817861  0.36490067  0.01709505     0.40800
H496        H  0.52950217  0.32747327  0.00072263     0.35700
C497        C  0.04870178  0.01744595  0.29729719    -0.26100
C498        C  0.03282738  0.99005479  0.31012587    -0.14100
C499        C  0.05548260  0.46075320  0.33826370     0.36500
C500        C  0.08549369  0.46907986  0.35030622    -0.25500
C501        C  0.09459456  0.00215119  0.33277427    -0.14800
C502        C  0.07947005  0.02365137  0.30829289     0.37600
N503        N  0.09432276  0.05361084  0.29809281    -0.89000
H504        H  0.03624918  0.03525111  0.28089156     0.18700
H505        H  0.09513352  0.45675681  0.37393506     0.18700
N506        N  0.03879198  0.43512234  0.35597721    -0.88000
H507        H  0.07987833  0.06738800  0.28097153     0.36100
H508        H  0.11421219  0.04749932  0.28290279     0.41200
H509        H  0.03711189  0.44078243  0.38373361     0.40800
H510        H  0.05193066  0.41361669  0.35337902     0.35700
C511        C  0.94677433  0.39517737  0.27140389    -0.26100
C512        C  0.94587028  0.42651159  0.25619887    -0.14100
C513        C  0.92065516  0.43548328  0.23352091     0.36500
C514        C  0.89458254  0.41530422  0.23120676    -0.25500
C515        C  0.89397483  0.38574403  0.25012729    -0.14800
C516        C  0.92107374  0.37462358  0.26848256     0.37600
N517        N  0.92226868  0.34364472  0.28659716    -0.89000
H518        H  0.96590773  0.38811455  0.28908069     0.18700
H519        H  0.87445306  0.42320070  0.21558700     0.18700
N520        N  0.92028887  0.46670811  0.21600870    -0.88000
H521        H  0.91953161  0.32520895  0.26719732     0.36100
H522        H  0.90381343  0.34251599  0.30523870     0.41200
H523        H  0.90083156  0.47982148  0.22543697     0.40800
H524        H  0.91754188  0.46284968  0.18801956     0.35700
C525        C  0.01369916  0.16032071  0.40711910    -0.26100
C526        C  0.01798044  0.19211092  0.42028935    -0.14100
C527        C  0.04542015  0.19919461  0.44022433     0.36500
C528        C  0.07006167  0.17657182  0.44046690    -0.25500
C529        C  0.06716234  0.14638076  0.42309763    -0.14800
C530        C  0.03802218  0.13713231  0.40867942     0.37600
N531        N  0.03408896  0.10525681  0.39297386    -0.89000
H532        H  0.99271807  0.15465224  0.39205586     0.18700
H533        H  0.09184939  0.18292834  0.45348940     0.18700
N534        N  0.04969296  0.23005137  0.45809263    -0.88000
H535        H  0.01184377  0.10310635  0.38164672     0.36100
H536        H  0.03518242  0.08827799  0.41419944     0.41200
H537        H  0.02941739  0.24435374  0.45678911     0.40800
H538        H  0.06728601  0.24254926  0.44429783     0.35700
C539        C  0.87157840  0.26867616  0.35687636    -0.26100
C540        C  0.86116071  0.24504188  0.33205325    -0.14100
C541        C  0.88008494  0.21713126  0.32555464     0.36500
C542        C  0.90986318  0.21505049  0.34145629    -0.25500
C543        C  0.92159820  0.24072128  0.36261890    -0.14800
C544        C  0.90202096  0.26749019  0.37105596     0.37600
N545        N  0.91370876  0.29431937  0.39208317    -0.89000
H546        H  0.85753261  0.29051416  0.36111499     0.18700
H547        H  0.92493840  0.19452458  0.33468009     0.18700
N548        N  0.87100070  0.19205830  0.30039662    -0.88000
H549        H  0.89625351  0.31199686  0.39593761     0.36100
H550        H  0.93117203  0.30559532  0.37683626     0.41200
H551        H  0.84835729  0.19623470  0.29091898     0.40800
H552        H  0.87029222  0.17010043  0.31485344     0.35700
C553        C  0.05890800  0.28133984  0.33300995    -0.26100
C554        C  0.02953049  0.26904503  0.32271630    -0.14100
C555        C  0.02507295  0.25888376  0.28625916     0.36500
C556        C  0.05040794  0.25910885  0.26203867    -0.25500
C557        C  0.08039681  0.26751741  0.27376320    -0.14800
C558        C  0.08461493  0.27993215  0.30906596     0.37600
N559        N  0.11498025  0.29013152  0.32067789    -0.89000
H560        H  0.06238855  0.28941849  0.36084642     0.18700
H561        H  0.04728043  0.24998890  0.23452935     0.18700
N562        N  0.99574080  0.24571794  0.27463547    -0.88000
H563        H  0.11414096  0.29848977  0.34761890     0.36100
H564        H  0.12130882  0.31005608  0.30457520     0.41200
H565        H  0.99266625  0.22349959  0.28811566     0.40800
H566        H  0.99622191  0.24029987  0.24676536     0.35700
C567        C  0.92892275  0.29520623  0.12257643    -0.26100
C568        C  0.92567709  0.28107538  0.08806053    -0.14100
C569        C  0.89722573  0.26585934  0.07889157     0.36500
C570        C  0.87164438  0.26810228  0.10301614    -0.25500
C571        C  0.87450122  0.28431853  0.13642612    -0.14800
C572        C  0.90378073  0.29672519  0.14695208     0.37600
N573        N  0.90747997  0.31242586  0.18168999    -0.89000
H574        H  0.95047488  0.30728492  0.12958558     0.18700
H575        H  0.84944113  0.25760988  0.09561345     0.18700
N576        N  0.89414478  0.24965531  0.04433077    -0.88000
H577        H  0.92977034  0.32230544  0.18418419     0.36100
H578        H  0.90586413  0.29438389  0.20171453     0.41200
H579        H  0.90974593  0.22988874  0.04417100     0.40800
H580        H  0.87179633  0.23997996  0.04159414     0.35700
C581        C  0.07240643  0.32714618  0.09913360    -0.26100
C582        C  0.09320924  0.30395407  0.08437809    -0.14100
C583        C  0.08522677  0.28805383  0.05139344     0.36500
C584        C  0.05540219  0.29292472  0.03644089    -0.25500
C585        C  0.03345073  0.31327051  0.05370583    -0.14800
C586        C  0.04246056  0.33179309  0.08425380     0.37600
N587        N  0.02021441  0.35313236  0.10177951    -0.89000
H588        H  0.07811188  0.33877779  0.12480118     0.18700
H589        H  0.04854139  0.27878468  0.01283354     0.18700
N590        N  0.10566176  0.26445266  0.03445039    -0.88000
H591        H  0.03019087  0.36440504  0.12446645     0.36100
H592        H  0.01461675  0.37171607  0.08333791     0.41200
H593        H  0.12719051  0.26342379  0.04769730     0.40800
H594        H  0.11032861  0.27265097  0.00801964     0.35700
C595        C  0.90541404  0.50328481  0.40704701    -0.26100
C596        C  0.87642395  0.51090621  0.39133437    -0.14100
C597        C  0.87503124  0.52066248  0.35470989     0.36500
C598        C  0.90269021  0.52084925  0.33392319    -0.25500
C599        C  0.93118882  0.50905582  0.34840403    -0.14800
C600        C  0.93253964  0.50143330  0.38599184     0.37600
N601        N  0.96025196  0.48899533  0.40299949    -0.89000
H602        H  0.90659217  0.49609166  0.43546444     0.18700
H603        H  0.90140877  0.52676312  0.30515237     0.18700
N604        N  0.84555368  0.52902596  0.33849987    -0.88000
H605        H  0.97756098  0.50668299  0.40144327     0.36100
H606        H  0.96767047  0.46789659  0.38932879     0.41200
H607        H  0.84852782  0.53522048  0.31106815     0.40800
H608        H  0.83705671  0.54993361  0.35170608     0.35700
C609        C  0.88530368  0.37292857  0.97312127    -0.26100
C610        C  0.88786665  0.40234662  0.99216702    -0.14100
C611        C  0.91690430  0.41138308  0.00698414     0.36500
C612        C  0.94157911  0.38862022  0.00693300    -0.25500
C613        C  0.93772144  0.35738052  0.99200230    -0.14800
C614        C  0.91028261  0.35074369  0.97188312     0.37600
N615        N  0.90637579  0.32065471  0.95234609    -0.89000
H616        H  0.86357289  0.36686129  0.95979414     0.18700
H617        H  0.96253147  0.39399624  0.02218655     0.18700
N618        N  0.92041887  0.44247589  0.02468665    -0.88000
H619        H  0.88900119  0.30732176  0.96551801     0.36100
H620        H  0.92685206  0.30662990  0.95289077     0.41200
H621        H  0.91930490  0.46047929  0.00454902     0.40800
H622        H  0.94256758  0.44430693  0.03634153     0.35700
C623        C  0.06368741  0.01228636  0.08210933    -0.26100
C624        C  0.03443971  0.02346780  0.06930889    -0.14100
C625        C  0.03154973  0.03223733  0.03213523     0.36500
C626        C  0.05940475  0.04329379  0.50766384    -0.25500
C627        C  0.08863300  0.03334388  0.52079818    -0.14800
C628        C  0.09054956  0.01388391  0.05999267     0.37600
N629        N  0.12065514  0.00488878  0.07411911    -0.89000
H630        H  0.06608882  0.00560041  0.11056386     0.18700
H631        H  0.05750837  0.05434505  0.48088359     0.18700
N632        N  0.00302019  0.04455511  0.01692676    -0.88000
H633        H  0.11862632  0.99659498  0.10097651     0.36100
H634        H  0.12528399  0.01952342  0.59268643     0.41200
H635        H  0.99564987  0.06505150  0.03175965     0.40800
H636        H  0.98745740  0.03806769  0.51490854     0.35700
C637        C  0.01642554  0.13776234  0.13579507    -0.26100
C638        C  0.01660383  0.10895333  0.15639363    -0.14100
C639        C  0.03989323  0.10405084  0.18322599     0.36500
C640        C  0.06463219  0.12593532  0.18548576    -0.25500
C641        C  0.06595172  0.15288765  0.16225263    -0.14800
C642        C  0.04114126  0.15977939  0.13829119     0.37600
N643        N  0.04203233  0.18820380  0.11531759    -0.89000
H644        H  0.99889232  0.14122614  0.11486218     0.18700
H645        H  0.08323076  0.12149770  0.20488628     0.18700
N646        N  0.04025915  0.07581496  0.20646937    -0.88000
H647        H  0.02199579  0.18968062  0.09917663     0.36100
H648        H  0.06090863  0.18541899  0.09743004     0.41200
H649        H  0.02023470  0.06189896  0.20266362     0.40800
H650        H  0.03917862  0.08416016  0.23339078     0.35700
C651        C  0.88031087  0.01175070  0.10014705    -0.26100
C652        C  0.86438695  0.03531443  0.07919979    -0.14100
C653        C  0.87706942  0.06681101  0.07587175     0.36500
C654        C  0.90687541  0.07296645  0.09055258    -0.25500
C655        C  0.92431013  0.04786465  0.10723759    -0.14800
C656        C  0.91032667  0.01749101  0.11359722     0.37600
N657        N  0.92766314  0.99186191  0.13135748    -0.89000
H658        H  0.87061422  0.98751464  0.10269286     0.18700
H659        H  0.91765692  0.09642743  0.08602218     0.18700
N660        N  0.86093319  0.09149059  0.05521978    -0.88000
H661        H  0.91406887  0.97093015  0.13407522     0.36100
H662        H  0.93295836  0.99981995  0.15766427     0.41200
H663        H  0.86045596  0.08390234  0.02800776     0.40800
H664        H  0.87332081  0.11335261  0.05571340     0.35700
C665        C  0.95885402  0.05145584  0.61178549     0.03400
C666        C  0.97024306  0.07533123  0.63606101    -0.12800
C667        C  0.00268538  0.07900037  0.64035310     0.00900
C668        C  0.02307729  0.05994828  0.61950177    -0.11300
C669        C  0.01229652  0.03839146  0.59329777     0.03400
C670        C  0.98014063  0.03313254  0.59039666    -0.10700
H671        H  0.95419045  0.09090678  0.65107359     0.09000
H672        H  0.04789214  0.06489504  0.62065809     0.06500
H673        H  0.97154984  0.01605226  0.57031543     0.06300
O674        O  0.77698625  0.43771971  0.56164694    -0.78200
C675        C  0.76276170  0.40369619  0.44177234     0.82800
O676        O  0.86709016  0.44765634  0.47596217    -0.79400
O677        O  0.82052058  0.48810786  0.90861050    -0.80800
O678        O  0.74981532  0.04342139  0.48270579    -0.80600
O679        O  0.75659259  0.48836390  0.56390134    -0.79300
Zn680      Zn  0.79496714  0.43258531  0.50919492     1.55700
O681        O  0.75142105  0.01626006  0.92977725    -0.80700
Cd682      Cd  0.77494987  0.01176760  0.52063836     1.59700
Cd683      Cd  0.84043044  0.48716629  0.48592958     1.59600
O684        O  0.81566786  0.03362884  0.54538773    -0.80600
O685        O  0.79692647  0.47575034  0.48883824    -1.91200
Cd686      Cd  0.78031296  0.47629466  0.93933826     1.59900
O687        O  0.84543477  0.98945040  0.54194533    -0.80600
O688        O  0.76418243  0.42874662  0.92561520    -0.79300
C689        C  0.86418480  0.41994660  0.49064388     0.83300
C690        C  0.76197495  0.46038339  0.57878537     0.82900
O691        O  0.76898631  0.40273668  0.47593173    -0.78200
C692        C  0.74270852  0.04055948  0.44849843     0.83700
O693        O  0.83913031  0.41174629  0.50729045    -0.78300
C694        C  0.84015182  0.01749424  0.55508823     0.83900
C695        C  0.84102956  0.50925478  0.91722355     0.84200
O696        O  0.84181658  0.52135280  0.94894594    -0.80700
C697        C  0.74918655  0.37192009  0.92622156     0.03400
C698        C  0.73622763  0.34575181  0.94636372    -0.12800
C699        C  0.72829512  0.31591542  0.92926784     0.00900
C700        C  0.73452091  0.31237546  0.89148376    -0.11300
C701        C  0.74794515  0.33769158  0.87072501     0.03400
C702        C  0.75461859  0.36747162  0.88846499    -0.10700
H703        H  0.73242222  0.35113961  0.47228488     0.09000
H704        H  0.72912802  0.28953775  0.87813862     0.06500
H705        H  0.76539513  0.38692022  0.87309970     0.06300
C706        C  0.00341704  0.30883404  0.55100135     0.03400
C707        C  0.98911214  0.32698392  0.52305515    -0.12800
C708        C  0.95647140  0.32770923  0.52027820     0.00900
C709        C  0.93865855  0.31039454  0.54543456    -0.11300
C710        C  0.95222834  0.29199358  0.57314183     0.03400
C711        C  0.98492105  0.29136134  0.57609633    -0.10700
H712        H  0.00316264  0.34145117  0.50467901     0.09000
H713        H  0.91354830  0.31374825  0.54548988     0.06500
H714        H  0.99589142  0.27827300  0.59837767     0.06300
O715        O  0.18525167  0.18960459  0.59831586    -0.78200
C716        C  0.19297046  0.15425421  0.71975967     0.82800
O717        O  0.09020118  0.20020810  0.67393486    -0.79400
O718        O  0.12784793  0.23645788  0.75124630    -0.80800
O719        O  0.20602412  0.29307949  0.67960016    -0.80600
O720        O  0.20444428  0.24037873  0.59679358    -0.79300
Zn721      Zn  0.16488887  0.18388921  0.64959650     1.55700
O722        O  0.19902719  0.26725780  0.73302044    -0.80700
Cd723      Cd  0.18122767  0.26308992  0.64144086     1.59700
Cd724      Cd  0.11792145  0.23894975  0.66915606     1.59600
O725        O  0.14690633  0.29145408  0.61336562    -0.80600
O726        O  0.16173410  0.22700391  0.67032787    -1.91200
Cd727      Cd  0.17019748  0.22723219  0.72334344     1.59900
O728        O  0.10632968  0.25905056  0.62180216    -0.80600
O729        O  0.18728534  0.18023586  0.73841524    -0.79300
C730        C  0.09454993  0.17203743  0.66081052     0.83300
C731        C  0.19997375  0.21245066  0.58163189     0.82900
O732        O  0.18857034  0.15354737  0.68515709    -0.78200
C733        C  0.20970937  0.29128220  0.71446791     0.83700
O734        O  0.12094063  0.16304323  0.64754490    -0.78300
C735        C  0.11922329  0.28247092  0.60553977     0.83900
C736        C  0.10562545  0.25562262  0.74162305     0.84200
O737        O  0.10547939  0.26881031  0.71045574    -0.80700
C738        C  0.20315169  0.12339650  0.73884474     0.03400
C739        C  0.21660861  0.09721454  0.71885741    -0.12800
C740        C  0.22426790  0.06722759  0.73575186     0.00900
C741        C  0.21757057  0.06355326  0.77340490    -0.11300
C742        C  0.20367003  0.08890294  0.79422090     0.03400
C743        C  0.19697703  0.11887913  0.77651338    -0.10700
H744        H  0.22151914  0.10036993  0.69009456     0.09000
H745        H  0.22295366  0.04055828  0.78659367     0.06500
H746        H  0.18578673  0.13839468  0.79176627     0.06300
C747        C  0.94914464  0.21984301  0.85316961     0.03400
C748        C  0.96859158  0.23749619  0.82928742    -0.12800
C749        C  0.00106453  0.23729614  0.83428674     0.00900
C750        C  0.01355110  0.21991683  0.86349204    -0.11300
C751        C  0.99475334  0.20225935  0.88734554     0.03400
C752        C  0.96235200  0.20206497  0.88216300    -0.10700
H753        H  0.95849542  0.25073396  0.80656165     0.09000
H754        H  0.03870291  0.21783247  0.86594641     0.06500
H755        H  0.94771077  0.18739979  0.89968155     0.06300
O756        O  0.76657517  0.39027739  0.72748713    -0.78200
C757        C  0.75755361  0.33208579  0.83154731     0.82800
O758        O  0.86686368  0.34207204  0.74603679    -0.79400
O759        O  0.80619436  0.24798708  0.79254255    -0.80800
O760        O  0.75720433  0.27838527  0.67793160    -0.80600
O761        O  0.77125737  0.36447132  0.67394281    -0.79300
Zn762      Zn  0.79088190  0.36023487  0.76266420     1.55700
O763        O  0.74628283  0.25447778  0.73151937    -0.80700
Cd764      Cd  0.78761952  0.31698417  0.68911648     1.59700
Cd765      Cd  0.83808581  0.30407724  0.74779256     1.59600
O766        O  0.83058307  0.30548214  0.66316469    -0.80600
O767        O  0.79456334  0.31694920  0.74242082    -1.91200
Cd768      Cd  0.77325370  0.28135440  0.76997670     1.59900
O769        O  0.85291141  0.27528962  0.70630084    -0.80600
O770        O  0.75304115  0.30398053  0.81676593    -0.79300
C771        C  0.86160822  0.37137376  0.75478175     0.83300
C772        C  0.76375246  0.38997217  0.69266709     0.82900
O773        O  0.77154373  0.35500466  0.81422486    -0.78200
C774        C  0.74411518  0.25573145  0.69648695     0.83700
O775        O  0.83435253  0.38142807  0.76395100    -0.78300
C776        C  0.85266148  0.28663797  0.67417521     0.83900
C777        C  0.83349876  0.25509661  0.80373584     0.84200
O778        O  0.84605579  0.28182783  0.79544006    -0.80700
C779        C  0.75314606  0.42071566  0.67350655     0.03400
C780        C  0.73934384  0.44694801  0.69325566    -0.12800
C781        C  0.73128883  0.47675951  0.67602801     0.00900
C782        C  0.73787788  0.48011313  0.63833025    -0.11300
C783        C  0.75205158  0.45473102  0.61784264     0.03400
C784        C  0.75912550  0.42501423  0.63581486    -0.10700
H785        H  0.73453218  0.44400126  0.72206537     0.09000
H786        H  0.73222836  0.50289921  0.62484067     0.06500
H787        H  0.77050049  0.40552480  0.62070599     0.06300
C788        C  0.99477979  0.49719973  0.79715975     0.03400
C789        C  0.97696712  0.01297683  0.82142832    -0.12800
C790        C  0.94205991  0.51032593  0.81838531     0.00900
C791        C  0.93058006  0.48733346  0.79419271    -0.11300
C792        C  0.95015076  0.46892782  0.77168583     0.03400
C793        C  0.98258497  0.47321916  0.77368674    -0.10700
H794        H  0.98764621  0.03011143  0.83992052     0.09000
H795        H  0.90599321  0.48128275  0.79540783     0.06500
H796        H  0.99812458  0.45746537  0.75816559     0.06300
O797        O  0.18415555  0.14190161  0.93702377    -0.78200
C798        C  0.19388258  0.08298050  0.83335826     0.82800
O799        O  0.09140974  0.09268537  0.94221295    -0.79400
O800        O  0.14116939  0.00541665  0.86632563    -0.80800
O801        O  0.20502522  0.02960044  0.98332677    -0.80600
O802        O  0.18791603  0.11545574  0.99024641    -0.79300
Zn803      Zn  0.16055628  0.11009931  0.90341336     1.55700
O804        O  0.20569397  0.00118822  0.93072606    -0.80700
Cd805      Cd  0.17309385  0.06753597  0.97661236     1.59700
Cd806      Cd  0.11862865  0.05438064  0.92914542     1.59600
O807        O  0.13412978  0.05380344  0.00867399    -0.80600
O808        O  0.16144577  0.06730177  0.92439843    -1.91200
Cd809      Cd  0.17834551  0.03118881  0.89337987     1.59900
O810        O  0.11371128  0.02034896  0.96818417    -0.80600
O811        O  0.19942288  0.05490210  0.84799793    -0.79300
C812        C  0.09143955  0.11883397  0.92394147     0.83300
C813        C  0.19095870  0.14152407  0.97108311     0.82900
O814        O  0.17892891  0.10550975  0.85083866    -0.78200
C815        C  0.21335540  0.00447419  0.96469891     0.83700
O816        O  0.11494848  0.12727522  0.90456129    -0.78300
C817        C  0.11425692  0.03199587  0.00009783     0.83900
C818        C  0.11291270  0.01542363  0.86229527     0.84200
O819        O  0.10160998  0.03778530  0.88216356    -0.80700
C820        C  0.20096949  0.17274544  0.98911906     0.03400
C821        C  0.19588447  0.17762151  0.02693357    -0.12800
C822        C  0.21032095  0.20711530  0.54262158     0.00900
C823        C  0.21482114  0.23297395  0.02252169    -0.11300
C824        C  0.22079599  0.22890170  0.98482296     0.03400
C825        C  0.21337791  0.19874941  0.96834654    -0.10700
H826        H  0.18563352  0.15820479  0.04283999     0.09000
H827        H  0.21986142  0.25609185  0.03544442     0.06500
H828        H  0.21764437  0.19533920  0.93946186     0.06300
C829        C  0.50322091  0.31268824  0.61075071     0.03400
C830        C  0.48516549  0.29496928  0.58553768    -0.12800
C831        C  0.45244516  0.29612899  0.58748510     0.00900
C832        C  0.43834628  0.31437050  0.61511565    -0.11300
C833        C  0.45568374  0.33169641  0.64063632     0.03400
C834        C  0.48840346  0.33112930  0.63830728    -0.10700
H835        H  0.49655111  0.28152507  0.56370778     0.09000
H836        H  0.41319081  0.31740450  0.61491467     0.06500
H837        H  0.50210924  0.34579137  0.65678865     0.06300
O838        O  0.68827217  0.15469059  0.47687898    -0.78200
C839        C  0.69840746  0.21346189  0.57862476     0.82800
O840        O  0.58892180  0.20239369  0.49054497    -0.79400
O841        O  0.64699870  0.29371164  0.54789644    -0.80800
O842        O  0.69886693  0.26644783  0.93073255    -0.80600
O843        O  0.68458844  0.18033449  0.92550178    -0.79300
Zn844      Zn  0.66403181  0.18564301  0.51114606     1.55700
O845        O  0.70645384  0.29386319  0.48138395    -0.80700
Cd846      Cd  0.66789440  0.22800852  0.94118490     1.59700
Cd847      Cd  0.61690004  0.24107614  0.49204845     1.59600
O848        O  0.62441908  0.24324073  0.91818171    -0.80600
O849        O  0.66071540  0.22880159  0.49034633    -1.91200
Cd850      Cd  0.68069533  0.26456909  0.51936782     1.59900
O851        O  0.60350165  0.26929125  0.96579529    -0.80600
O852        O  0.70338588  0.24138956  0.56376009    -0.79300
C853        C  0.59362630  0.17437110  0.50378414     0.83300
C854        C  0.69325921  0.15494963  0.44241840     0.82900
O855        O  0.68365700  0.19093432  0.56176760    -0.78200
C856        C  0.71095937  0.29173840  0.44664061     0.83700
O857        O  0.62051235  0.16513871  0.51496718    -0.78300
C858        C  0.60325993  0.26189775  0.93219674     0.83900
C859        C  0.61887443  0.28585965  0.55527676     0.84200
O860        O  0.60540325  0.26298794  0.53873271    -0.80700
C861        C  0.70582373  0.12509342  0.92531877     0.03400
C862        C  0.70059176  0.12076452  0.88765785    -0.12800
C863        C  0.70775926  0.09098014  0.86999348     0.00900
C864        C  0.72119908  0.06551947  0.89071183    -0.11300
C865        C  0.72743830  0.06898711  0.92847488     0.03400
C866        C  0.71946083  0.09896872  0.94542543    -0.10700
H867        H  0.68947000  0.14022654  0.87236338     0.09000
H868        H  0.72671047  0.04267296  0.87719427     0.06500
H869        H  0.72298068  0.10161373  0.47321253     0.06300
C870        C  0.45275763  0.06152739  0.56109916     0.03400
C871        C  0.47130541  0.04070950  0.58307523    -0.12800
C872        C  0.50405983  0.04173281  0.58067253     0.00900
C873        C  0.51755525  0.06356295  0.55638022    -0.11300
C874        C  0.49968017  0.08419089  0.53450163     0.03400
C875        C  0.46706873  0.08351020  0.53702584    -0.10700
H876        H  0.46031897  0.02470692  0.60269091     0.09000
H877        H  0.54266026  0.06656979  0.55654144     0.06500
H878        H  0.45302771  0.10034237  0.52109755     0.06300
O879        O  0.26643660  0.40396243  0.68791520    -0.78200
C880        C  0.26121706  0.46360177  0.58566515     0.82800
O881        O  0.36405790  0.44848602  0.69163816    -0.79400
O882        O  0.30774647  0.04341624  0.61853930    -0.80800
O883        O  0.25278563  0.01681716  0.73395410    -0.80600
O884        O  0.26374322  0.43011387  0.74149019    -0.79300
Zn885      Zn  0.29259266  0.43458840  0.65568779     1.55700
O886        O  0.24524796  0.04235059  0.68038700    -0.80700
Cd887      Cd  0.28253164  0.47701168  0.73003656     1.59700
Cd888      Cd  0.33751894  0.48848075  0.68258764     1.59600
O889        O  0.32309640  0.48586225  0.76246755    -0.80600
O890        O  0.29413044  0.47719607  0.67754944    -1.91200
Cd891      Cd  0.27205927  0.01375815  0.64204332     1.59900
O892        O  0.34361828  0.52046929  0.72364479    -0.80600
O893        O  0.25608575  0.49156712  0.60077758    -0.79300
C894        C  0.36157063  0.42168201  0.67472257     0.83300
C895        C  0.25913381  0.40454217  0.72183451     0.82900
O896        O  0.27538262  0.44053341  0.60297140    -0.78200
C897        C  0.24125269  0.04046291  0.71526274     0.83700
O898        O  0.33685615  0.41426496  0.65709053    -0.78300
C899        C  0.34421227  0.50657193  0.75432176     0.83900
C900        C  0.33329022  0.03150621  0.60592209     0.84200
O901        O  0.34227548  0.00330606  0.61507478    -0.80700
C902        C  0.24698646  0.37396278  0.73942460     0.03400
C903        C  0.23435845  0.34802969  0.71857046    -0.12800
C904        C  0.22546156  0.31830962  0.73526058     0.00900
C905        C  0.23028561  0.31471155  0.77322937    -0.11300
C906        C  0.24329404  0.33974732  0.79450816     0.03400
C907        C  0.25085623  0.36945077  0.77731977    -0.10700
H908        H  0.23125839  0.35109166  0.68947182     0.09000
H909        H  0.22434081  0.29193624  0.78635277     0.06500
H910        H  0.26146892  0.38864730  0.79321616     0.06300
C911        C  0.45567733  0.24788720  0.81198448     0.03400
C912        C  0.47131991  0.22773804  0.78663007    -0.12800
C913        C  0.50400583  0.22884043  0.78367520     0.00900
C914        C  0.52053481  0.25008361  0.80603590    -0.11300
C915        C  0.50573313  0.26929716  0.83245855     0.03400
C916        C  0.47300186  0.26844348  0.83510210    -0.10700
H917        H  0.45830064  0.21047312  0.77042375     0.09000
H918        H  0.54578215  0.24843389  0.80606175     0.06500
H919        H  0.46115869  0.28245950  0.85614996     0.06300
O920        O  0.26611335  0.35646792  0.85113257    -0.78200
C921        C  0.25614030  0.39330105  0.97029379     0.78000
O922        O  0.35342047  0.34624652  0.94116200    -0.79400
O923        O  0.31715574  0.30675043  0.00418238    -0.80800
O924        O  0.24344032  0.25276904  0.93013277    -0.80600
O925        O  0.24840486  0.30512708  0.84743983    -0.79300
Zn926      Zn  0.28589270  0.36167161  0.90176637     1.55700
O927        O  0.24562493  0.28048004  0.98312861    -0.80700
Cd928      Cd  0.26971336  0.28246275  0.89305473     1.59700
Cd929      Cd  0.32771904  0.30777199  0.92613560     1.59600
O930        O  0.30791459  0.25577155  0.86878373    -0.80600
O931        O  0.28476160  0.31945890  0.92311670    -1.91200
Cd932      Cd  0.27564733  0.31932542  0.97565154     1.59900
O933        O  0.34402578  0.29317097  0.87795012    -0.80600
O934        O  0.25936635  0.36705427  0.98926213    -0.79300
C935        C  0.35510642  0.36899480  0.91807973     0.83300
C936        C  0.25247659  0.33361295  0.83344681     0.82900
O937        O  0.26337961  0.39404045  0.93632011    -0.78200
C938        C  0.23701047  0.25567798  0.96442650     0.83700
O939        O  0.33202189  0.37614535  0.89737723    -0.78300
C940        C  0.33496809  0.26751852  0.86231242     0.83900
C941        C  0.33668882  0.28484216  0.99359351     0.84200
O942        O  0.33389804  0.27196754  0.96255300    -0.80700
C943        C  0.24533070  0.42428469  0.98855268     0.03400
C944        C  0.25096896  0.42904648  0.02614477    -0.12800
C945        C  0.25188993  0.45826523  0.54630187     0.00900
C946        C  0.23028178  0.48416663  0.02265904    -0.11300
C947        C  0.22360156  0.48014181  0.98508482     0.03400
C948        C  0.23166434  0.45012952  0.96826916    -0.10700
H949        H  0.26912574  0.40854825  0.54380585     0.09000
H950        H  0.22489654  0.50719150  0.03586649     0.06500
H951        H  0.22705674  0.44673671  0.93949463     0.06300
C952        C  0.50307512  0.46738472  0.85276276     0.03400
C953        C  0.49140270  0.44246653  0.87527611    -0.12800
C954        C  0.45917526  0.44063918  0.88161989     0.00900
C955        C  0.43910746  0.46372451  0.86633007    -0.11300
C956        C  0.44988879  0.48832928  0.84355286     0.03400
C957        C  0.48003783  0.00766504  0.82622570    -0.10700
H958        H  0.50696555  0.42399804  0.88629885     0.09000
H959        H  0.41419421  0.46035509  0.86959249     0.06500
H960        H  0.49060795  0.02214083  0.80487002     0.06300
O961        O  0.68646683  0.10955723  0.81305558    -0.78200
C962        C  0.69475353  0.14319281  0.69180927     0.82800
O963        O  0.59150821  0.10495777  0.74470051    -0.79400
O964        O  0.62529719  0.05859873  0.66489734    -0.80800
O965        O  0.70680967  0.00552481  0.73304595    -0.80600
O966        O  0.70074400  0.05674881  0.81699826    -0.79300
Zn967      Zn  0.66729002  0.11629871  0.76218134     1.55700
O968        O  0.69831268  0.03013354  0.67928820    -0.80700
Cd969      Cd  0.68048060  0.03561752  0.76982701     1.59700
Cd970      Cd  0.61878814  0.06524827  0.74941723     1.59600
O971        O  0.64387412  0.00611229  0.78996406    -0.80600
O972        O  0.66251934  0.07333906  0.74198685    -1.91200
Cd973      Cd  0.66884405  0.07091898  0.68896515     1.59900
O974        O  0.61207058  0.04773131  0.79990105    -0.80600
O975        O  0.68618350  0.11803800  0.67322718    -0.79300
C976        C  0.59752207  0.13349133  0.75534854     0.83300
C977        C  0.69833779  0.08554787  0.83097374     0.82900
O978        O  0.69240610  0.14383243  0.72664388    -0.78200
C979        C  0.70981435  0.00644089  0.69810966     0.83700
O980        O  0.62502027  0.14131224  0.76528966    -0.78300
C981        C  0.61904002  0.01800348  0.80416067     0.83900
C982        C  0.60333486  0.04117088  0.67837067     0.84200
O983        O  0.60304468  0.03352222  0.71182638    -0.80700
C984        C  0.70600196  0.17350382  0.67279187     0.03400
C985        C  0.71925396  0.19952246  0.69288495    -0.12800
C986        C  0.72748425  0.22923347  0.67591662     0.00900
C987        C  0.72164116  0.23281561  0.63819006    -0.11300
C988        C  0.70809329  0.20762188  0.61747060     0.03400
C989        C  0.70084816  0.17793531  0.63510035    -0.10700
H990        H  0.72345204  0.19652887  0.72180414     0.09000
H991        H  0.72727514  0.25561793  0.62492289     0.06500
H992        H  0.68983291  0.15864359  0.61974863     0.06300
C993        C  0.54700586  0.45797401  0.80942386    -0.26100
C994        C  0.53292499  0.98643247  0.84206453    -0.14100
C995        C  0.55341938  0.00203128  0.86625689     0.36500
C996        C  0.58426225  0.00750783  0.85575740    -0.25500
C997        C  0.59503938  0.99785423  0.82123259    -0.14800
C998        C  0.57699126  0.46569139  0.79643168     0.37600
N999        N  0.58597674  0.45752626  0.75970758    -0.89000
H1000       H  0.53080806  0.44539591  0.79178880     0.18700
H1001       H  0.59884886  0.02250073  0.87297464     0.18700
N1002       N  0.54268566  0.01518218  0.90017217    -0.88000
H1003       H  0.56831527  0.44450175  0.74674533     0.36100
H1004       H  0.60534398  0.44189437  0.76120130     0.41200
H1005       H  0.53417682  0.99610934  0.91612532     0.40800
H1006       H  0.52438689  0.03155007  0.89488939     0.35700
C1007       C  0.40305567  0.37449931  0.88223459    -0.26100
C1008       C  0.38551619  0.38412357  0.91266781    -0.14100
C1009       C  0.39856582  0.40507322  0.93877630     0.36500
C1010       C  0.42768233  0.41922892  0.93153200    -0.25500
C1011       C  0.44357293  0.41270010  0.89865412    -0.14800
C1012       C  0.43225590  0.38800211  0.87525903     0.37600
N1013       N  0.44825701  0.37854925  0.84232759    -0.89000
H1014       H  0.39367705  0.35680458  0.86327737     0.18700
H1015       H  0.43613294  0.43833172  0.94932233     0.18700
N1016       N  0.38155680  0.41307713  0.97146261    -0.88000
H1017       H  0.45281258  0.35347205  0.84396144     0.36100
H1018       H  0.47001837  0.38961205  0.84058599     0.41200
H1019       H  0.36140923  0.42589186  0.96381168     0.40800
H1020       H  0.39450047  0.42878032  0.98789198     0.35700
C1021       C  0.51843566  0.17082474  0.77622406    -0.26100
C1022       C  0.52268239  0.20316866  0.76509626    -0.14100
C1023       C  0.55025361  0.21144087  0.74615101     0.36500
C1024       C  0.57462216  0.18849236  0.74288214    -0.25500
C1025       C  0.57136015  0.15702235  0.75710593    -0.14800
C1026       C  0.54249442  0.14771312  0.77234084     0.37600
N1027       N  0.53824775  0.11533205  0.78612122    -0.89000
H1028       H  0.49756707  0.16414995  0.79108909     0.18700
H1029       H  0.59624452  0.19542496  0.72976499     0.18700
N1030       N  0.55409845  0.24376030  0.73206466    -0.88000
H1031       H  0.51916006  0.10513194  0.77274600     0.36100
H1032       H  0.53283592  0.11697596  0.81388976     0.41200
H1033       H  0.55827787  0.24189548  0.70403633     0.40800
H1034       H  0.57387549  0.25385104  0.74411099     0.35700
C1035       C  0.37010495  0.27096604  0.81004202    -0.26100
C1036       C  0.35842845  0.25174383  0.83860693    -0.14100
C1037       C  0.37764068  0.22674413  0.85316179     0.36500
C1038       C  0.40886118  0.22390450  0.84180781    -0.25500
C1039       C  0.42141116  0.24600636  0.81663019    -0.14800
C1040       C  0.40145775  0.26877584  0.79951197     0.37600
N1041       N  0.41303218  0.29143236  0.77319045    -0.89000
H1042       H  0.35587327  0.29065850  0.79912911     0.18700
H1043       H  0.42400050  0.20610814  0.85484106     0.18700
N1044       N  0.36687621  0.20601364  0.88190708    -0.88000
H1045       H  0.42351791  0.27802376  0.75214288     0.36100
H1046       H  0.43017001  0.30561955  0.78554791     0.41200
H1047       H  0.34696245  0.19402665  0.87272877     0.40800
H1048       H  0.36062572  0.22047959  0.90431245     0.35700
C1049       C  0.42873559  0.50430730  0.78352910    -0.26100
C1050       C  0.42596867  0.50603720  0.82152659    -0.14100
C1051       C  0.39663097  0.51521515  0.83687085     0.36500
C1052       C  0.36998800  0.51607382  0.81465568    -0.25500
C1053       C  0.37241487  0.51070629  0.77705407    -0.14800
C1054       C  0.40240751  0.50708016  0.76105187     0.37600
N1055       N  0.40581913  0.50329793  0.72222083    -0.89000
H1056       H  0.45099271  0.49773311  0.77139668     0.18700
H1057       H  0.34729828  0.52050771  0.82687732     0.18700
N1058       N  0.39224539  0.05069789  0.85117207    -0.88000
H1059       H  0.42896652  0.49787755  0.71528456     0.36100
H1060       H  0.40081565  0.52590304  0.71030190     0.41200
H1061       H  0.41462879  0.52291441  0.88819012     0.40800
H1062       H  0.37944934  0.50468079  0.88695006     0.35700
C1063       C  0.52026555  0.03412425  0.64451242    -0.26100
C1064       C  0.52542791  0.02648239  0.60776037    -0.14100
C1065       C  0.55565965  0.01561056  0.59687624     0.36500
C1066       C  0.58089995  0.01967415  0.62064539    -0.25500
C1067       C  0.57623441  0.03173608  0.65596354    -0.14800
C1068       C  0.54523778  0.03679465  0.66871907     0.37600
N1069       N  0.53847238  0.04765138  0.70507866    -0.89000
H1070       H  0.49730207  0.04198935  0.65355125     0.18700
H1071       H  0.60434104  0.01431875  0.61108664     0.18700
N1072       N  0.56181537  0.00341204  0.56075216    -0.88000
H1073       H  0.55023798  0.06943374  0.70984753     0.36100
H1074       H  0.54618145  0.02990050  0.72349941     0.41200
H1075       H  0.57139772  0.97998412  0.56346189     0.40800
H1076       H  0.54099368  0.00043145  0.54643677     0.35700
C1077       C  0.36931281  0.03408692  0.55413308    -0.26100
C1078       C  0.35584643  0.05020793  0.58425911    -0.14100
C1079       C  0.37260189  0.07522212  0.60163537     0.36500
C1080       C  0.40397059  0.08042608  0.59183060    -0.25500
C1081       C  0.41845633  0.06119023  0.56487879    -0.14800
C1082       C  0.40059206  0.03913567  0.54461879     0.37600
N1083       N  0.41480228  0.02014006  0.51615465    -0.89000
H1084       H  0.35671606  0.01460806  0.54082642     0.18700
H1085       H  0.41777221  0.09779327  0.60697894     0.18700
N1086       N  0.35887265  0.09248643  0.63189151    -0.88000
H1087       H  0.40239768  0.02444659  0.49209595     0.36100
H1088       H  0.41250878  0.99546390  0.52278333     0.41200
H1089       H  0.33996077  0.10598961  0.62183168     0.40800
H1090       H  0.37459877  0.10932911  0.64254046     0.35700
C1091       C  0.58088777  0.28904571  0.87712088    -0.26100
C1092       C  0.57623971  0.27292765  0.91030005    -0.14100
C1093       C  0.54535188  0.26579149  0.92148459     0.36500
C1094       C  0.52062815  0.27051788  0.89725422    -0.25500
C1095       C  0.52596281  0.28225324  0.86193255    -0.14800
C1096       C  0.55579338  0.29509010  0.85346394     0.37600
N1097       N  0.56176729  0.31163380  0.81963884    -0.89000
H1098       H  0.60420026  0.29612050  0.86907177     0.18700
H1099       H  0.49793398  0.26109024  0.90460576     0.18700
N1100       N  0.53864937  0.25078577  0.95585104    -0.88000
H1101       H  0.54099505  0.31544844  0.80534829     0.36100
H1102       H  0.56995770  0.33488623  0.82606795     0.41200
H1103       H  0.54582916  0.26628482  0.97680138     0.40800
H1104       H  0.55104525  0.22879147  0.95740826     0.35700
C1105       C  0.56854464  0.12169903  0.49082491    -0.26100
C1106       C  0.56673488  0.15274528  0.50643183    -0.14100
C1107       C  0.53868030  0.16355734  0.52300308     0.36500
C1108       C  0.51396849  0.14161822  0.52693117    -0.25500
C1109       C  0.51698346  0.10939747  0.51448062    -0.14800
C1110       C  0.54365241  0.10016352  0.49382599     0.37600
N1111       N  0.54682260  0.06836023  0.47759766    -0.89000
H1112       H  0.58954327  0.11401906  0.47655017     0.18700
H1113       H  0.49371707  0.14865699  0.54297029     0.18700
N1114       N  0.53608325  0.19611218  0.53752815    -0.88000
H1115       H  0.56434985  0.05566390  0.49158717     0.36100
H1116       H  0.52626623  0.05507167  0.48017602     0.41200
H1117       H  0.55201528  0.19810707  0.55893962     0.40800
H1118       H  0.51392684  0.20015586  0.54874111     0.35700
C1119       C  0.40341725  0.26881873  0.56948295    -0.26100
C1120       C  0.43147436  0.28372062  0.55851839    -0.14100
C1121       C  0.43443201  0.29480632  0.52224186     0.36500
C1122       C  0.39372560  0.28882511  0.99369066    -0.25500
C1123       C  0.36647574  0.28001716  0.01250574    -0.14800
C1124       C  0.37698680  0.26931241  0.54691330     0.37600
N1125       N  0.34756167  0.25731758  0.55975611    -0.89000
H1126       H  0.40122402  0.25992865  0.59719625     0.18700
H1127       H  0.39222021  0.29566790  0.96518965     0.18700
N1128       N  0.46268240  0.30998380  0.50995959    -0.88000
H1129       H  0.34970197  0.24837497  0.58633810     0.36100
H1130       H  0.33312252  0.23828337  0.05531720     0.41200
H1131       H  0.46499399  0.33196063  0.52416933     0.40800
H1132       H  0.44369176  0.30953881  0.96586896     0.35700
C1133       C  0.38512060  0.36704603  0.68469095    -0.26100
C1134       C  0.38872830  0.39960155  0.67440084    -0.14100
C1135       C  0.41824935  0.41080584  0.66300342     0.36500
C1136       C  0.44269012  0.38817919  0.65796162    -0.25500
C1137       C  0.43787982  0.35481014  0.66387459    -0.14800
C1138       C  0.40963951  0.34463864  0.68045052     0.37600
N1139       N  0.40446476  0.31126472  0.69065174    -0.89000
H1140       H  0.36284813  0.35877855  0.69503501     0.18700
H1141       H  0.46421033  0.39610656  0.64534968     0.18700
N1142       N  0.42263024  0.44464398  0.65409329    -0.88000
H1143       H  0.38738064  0.30177806  0.67344311     0.36100
H1144       H  0.42467876  0.29714379  0.68720991     0.41200
H1145       H  0.40875770  0.45004506  0.63143094     0.40800
H1146       H  0.44571465  0.44883590  0.64626307     0.35700
C1147       C  0.55637002  0.29078516  0.62331947    -0.26100
C1148       C  0.53739822  0.31384417  0.60574210    -0.14100
C1149       C  0.55048849  0.33440129  0.57922734     0.36500
C1150       C  0.58152305  0.32942868  0.56801319    -0.25500
C1151       C  0.59920923  0.30330732  0.58191766    -0.14800
C1152       C  0.58725248  0.28537978  0.61184353     0.37600
N1153       N  0.60465702  0.25908102  0.62825168    -0.89000
H1154       H  0.54641876  0.27511151  0.64400639     0.18700
H1155       H  0.59015484  0.34297774  0.54476068     0.18700
N1156       N  0.53149008  0.35853328  0.56152678    -0.88000
H1157       H  0.60698028  0.26449196  0.65597996     0.36100
H1158       H  0.62732605  0.25798172  0.61774977     0.41200
H1159       H  0.54205354  0.38120453  0.56501746     0.40800
H1160       H  0.53117479  0.35328251  0.53361575     0.35700
C1161       C  0.04802963  0.01815802  0.79540167    -0.26100
C1162       C  0.03037390  0.99160073  0.80722250    -0.14100
C1163       C  0.04648766  0.47585133  0.82037844     0.36500
C1164       C  0.07635962  0.48317389  0.83409822    -0.25500
C1165       C  0.09106186  0.00187857  0.83518471    -0.14800
C1166       C  0.07815857  0.02341405  0.80911731     0.37600
N1167       N  0.09462433  0.05230490  0.79902951    -0.89000
H1168       H  0.03750249  0.03617537  0.77756309     0.18700
H1169       H  0.08860309  0.46539873  0.85074918     0.18700
N1170       N  0.03306088  0.44435777  0.82678225    -0.88000
H1171       H  0.08074487  0.07253896  0.80587159     0.36100
H1172       H  0.09751181  0.05211683  0.77070842     0.41200
H1173       H  0.01417364  0.44755439  0.84456847     0.40800
H1174       H  0.04901448  0.42903332  0.84006270     0.35700
C1175       C  0.94012658  0.41034480  0.77042051    -0.26100
C1176       C  0.93523910  0.44083749  0.75400769    -0.14100
C1177       C  0.90808909  0.44615070  0.73282726     0.36500
C1178       C  0.88452843  0.42269607  0.73295471    -0.25500
C1179       C  0.88789915  0.39398521  0.75314012    -0.14800
C1180       C  0.91671820  0.38686634  0.77026118     0.37600
N1181       N  0.92196169  0.35718701  0.79006811    -0.89000
H1182       H  0.96067958  0.40616657  0.78700979     0.18700
H1183       H  0.86301895  0.42729843  0.71827531     0.18700
N1184       N  0.90369451  0.47621784  0.71321578    -0.88000
H1185       H  0.92072551  0.33754767  0.77195798     0.36100
H1186       H  0.90443528  0.35483930  0.80974010     0.41200
H1187       H  0.90069333  0.49527340  0.73183477     0.40800
H1188       H  0.88319992  0.47552431  0.69785264     0.35700
C1189       C  0.00943021  0.14624477  0.90306098    -0.26100
C1190       C  0.01117434  0.17945730  0.91190791    -0.14100
C1191       C  0.03692888  0.19077402  0.93235034     0.36500
C1192       C  0.06284997  0.17028238  0.93714239    -0.25500
C1193       C  0.06267866  0.13837379  0.92369379    -0.14800
C1194       C  0.03505673  0.12539163  0.90894337     0.37600
N1195       N  0.03419699  0.09197679  0.89690567    -0.89000
H1196       H  0.98969390  0.13748037  0.88758374     0.18700
H1197       H  0.08358218  0.17966528  0.95018004     0.18700
N1198       N  0.03836031  0.22372155  0.94570453    -0.88000
H1199       H  0.01276297  0.08687380  0.88471908     0.36100
H1200       H  0.03559449  0.07716857  0.92005065     0.41200
H1201       H  0.01730313  0.23612482  0.94124707     0.40800
H1202       H  0.05566388  0.23584341  0.93100398     0.35700
C1203       C  0.86347011  0.24187910  0.85824697    -0.26100
C1204       C  0.85366766  0.23202153  0.82344539    -0.14100
C1205       C  0.87341448  0.21138186  0.80250278     0.36500
C1206       C  0.90411058  0.20576164  0.81405997    -0.25500
C1207       C  0.91515135  0.21940889  0.84655268    -0.14800
C1208       C  0.89421580  0.23589769  0.86998909     0.37600
N1209       N  0.90492277  0.24878264  0.90415139    -0.89000
H1210       H  0.84849857  0.25794379  0.87417097     0.18700
H1211       H  0.92004622  0.19241255  0.79639125     0.18700
N1212       N  0.86430618  0.19902690  0.76742572    -0.88000
H1213       H  0.88654793  0.26016267  0.91817261     0.36100
H1214       H  0.92123706  0.26687655  0.89840075     0.41200
H1215       H  0.84086184  0.20424518  0.76221591     0.40800
H1216       H  0.86605073  0.17357951  0.76852555     0.35700
C1217       C  0.04993603  0.26716050  0.82071283    -0.26100
C1218       C  0.02354475  0.25065939  0.80739798    -0.14100
C1219       C  0.02311628  0.24042845  0.77061815     0.36500
C1220       C  0.04969467  0.24512151  0.74889801    -0.25500
C1221       C  0.07708242  0.25810889  0.76367133    -0.14800
C1222       C  0.07704200  0.27022668  0.79942341     0.37600
N1223       N  0.10475475  0.28446338  0.81425617    -0.89000
H1224       H  0.05023806  0.27523585  0.84886721     0.18700
H1225       H  0.04992839  0.23609575  0.72109348     0.18700
N1226       N  0.99685276  0.22309237  0.75621925    -0.88000
H1227       H  0.10092203  0.29190217  0.84119670     0.36100
H1228       H  0.10942219  0.30555878  0.79926532     0.41200
H1229       H  0.99564599  0.20068692  0.76974788     0.40800
H1230       H  0.00025188  0.21767293  0.72860746     0.35700
C1231       C  0.93500884  0.29058205  0.63770075    -0.26100
C1232       C  0.93085687  0.27966180  0.60184996    -0.14100
C1233       C  0.90211394  0.26533546  0.59200538     0.36500
C1234       C  0.87680216  0.26672128  0.61641259    -0.25500
C1235       C  0.88024723  0.28054984  0.65100153    -0.14800
C1236       C  0.91001972  0.29091612  0.66256460     0.37600
N1237       N  0.91410263  0.30442112  0.69844046    -0.89000
H1238       H  0.95690883  0.30161106  0.64535904     0.18700
H1239       H  0.85413701  0.25798252  0.60806780     0.18700
N1240       N  0.89824570  0.25168484  0.55617947    -0.88000
H1241       H  0.93682494  0.31295913  0.70174398     0.36100
H1242       H  0.91148574  0.28545725  0.71720839     0.41200
H1243       H  0.91346494  0.23169439  0.55396041     0.40800
H1244       H  0.87567250  0.24271190  0.55296346     0.35700
C1245       C  0.08261404  0.32638901  0.59093887    -0.26100
C1246       C  0.09946174  0.29901412  0.57852266    -0.14100
C1247       C  0.08675666  0.27969415  0.55024706     0.36500
C1248       C  0.05578399  0.28489828  0.53952515    -0.25500
C1249       C  0.03759701  0.30945018  0.55572150    -0.14800
C1250       C  0.05153682  0.33169465  0.57990346     0.37600
N1251       N  0.03325269  0.35781749  0.59543918    -0.89000
H1252       H  0.09212523  0.34100833  0.61283145     0.18700
H1253       H  0.04516311  0.26815154  0.52049065     0.18700
N1254       N  0.10347652  0.25222127  0.53513758    -0.88000
H1255       H  0.04674758  0.37157339  0.61338961     0.36100
H1256       H  0.02682775  0.37344707  0.57416677     0.41200
H1257       H  0.12636098  0.25138998  0.54486256     0.40800
H1258       H  0.10527875  0.25597685  0.50701480     0.35700
C1259       C  0.89739028  0.50918676  0.90597255    -0.26100
C1260       C  0.86738096  0.51637378  0.89290675    -0.14100
C1261       C  0.86364195  0.52905681  0.85760796     0.36500
C1262       C  0.89015854  0.53270508  0.83531630    -0.25500
C1263       C  0.91984346  0.52167201  0.84686167    -0.14800
C1264       C  0.92344923  0.51091594  0.88325218     0.37600
N1265       N  0.95259066  0.49881592  0.89702464    -0.89000
H1266       H  0.90032864  0.49974581  0.93339222     0.18700
H1267       H  0.88718921  0.54069196  0.80735339     0.18700
N1268       N  0.83311825  0.53762476  0.84439582    -0.88000
H1269       H  0.96891329  0.51753266  0.89593169     0.36100
H1270       H  0.96023579  0.47932073  0.88078294     0.41200
H1271       H  0.82030130  0.51613435  0.84230356     0.40800
H1272       H  0.83457276  0.54722145  0.81804401     0.35700
C1273       C  0.88668341  0.36525245  0.47790485    -0.26100
C1274       C  0.89108554  0.39750755  0.48903190    -0.14100
C1275       C  0.92109061  0.40786190  0.49968993     0.36500
C1276       C  0.94497549  0.38453708  0.50387500    -0.25500
C1277       C  0.93930143  0.35142450  0.49740857    -0.14800
C1278       C  0.91075878  0.34221787  0.48104785     0.37600
N1279       N  0.90474811  0.30911090  0.47037912    -0.89000
H1280       H  0.86409413  0.35765384  0.46796940     0.18700
H1281       H  0.96680822  0.39171874  0.51621147     0.18700
N1282       N  0.92639535  0.44134141  0.50954512    -0.88000
H1283       H  0.88768955  0.29974558  0.48778308     0.36100
H1284       H  0.92473105  0.29449387  0.47289337     0.41200
H1285       H  0.92530721  0.45516586  0.48564176     0.40800
H1286       H  0.94898226  0.44423991  0.51966192     0.35700
C1287       C  0.06414035  0.01550801  0.57672089    -0.26100
C1288       C  0.03518895  0.02842070  0.56506627    -0.14100
C1289       C  0.03285609  0.04160143  0.52950652     0.36500
C1290       C  0.05788513  0.03202266  0.00984310    -0.25500
C1291       C  0.08755115  0.02493722  0.02390755    -0.14800
C1292       C  0.09102657  0.01856997  0.55508395     0.37600
N1293       N  0.12066906  0.00739542  0.56821420    -0.89000
H1294       H  0.06640469  0.00583638  0.60410165     0.18700
H1295       H  0.05549522  0.04027228  0.98187410     0.18700
N1296       N  0.00459800  0.05596476  0.51586879    -0.88000
H1297       H  0.11894477  0.98248015  0.57388400     0.36100
H1298       H  0.13417690  0.02594889  0.07512188     0.41200
H1299       H  0.99740174  0.07472591  0.53341153     0.40800
H1300       H  0.98613871  0.02644113  0.01844274     0.35700
C1301       C  0.01480326  0.13710299  0.64257186    -0.26100
C1302       C  0.01745829  0.10653517  0.65950165    -0.14100
C1303       C  0.04368157  0.10003131  0.68199876     0.36500
C1304       C  0.06890980  0.12146000  0.68158469    -0.25500
C1305       C  0.06770732  0.15008356  0.66094123    -0.14800
C1306       C  0.03978733  0.15904419  0.64307243     0.37600
N1307       N  0.03760733  0.18956858  0.62385885    -0.89000
H1308       H  0.99486334  0.14220843  0.62530782     0.18700
H1309       H  0.08970856  0.11549844  0.69705578     0.18700
N1310       N  0.04658054  0.07027726  0.70247822    -0.88000
H1311       H  0.01552694  0.19246328  0.61217466     0.36100
H1312       H  0.05363550  0.18876109  0.60233244     0.41200
H1313       H  0.02594186  0.05697260  0.70119236     0.40800
H1314       H  0.04928338  0.07677310  0.72985483     0.35700
C1315       C  0.88237173  0.00788246  0.59983416    -0.26100
C1316       C  0.86498732  0.03065750  0.57924305    -0.14100
C1317       C  0.87656905  0.06264863  0.57540293     0.36500
C1318       C  0.90632702  0.07020555  0.58959187    -0.25500
C1319       C  0.92491675  0.04612288  0.60642125    -0.14800
C1320       C  0.91233074  0.01505501  0.61276798     0.37600
N1321       N  0.93100588  0.99022374  0.63011971    -0.89000
H1322       H  0.87359591  0.98334941  0.60320326     0.18700
H1323       H  0.91612381  0.09408842  0.58473950     0.18700
N1324       N  0.85931689  0.08656884  0.55488512    -0.88000
H1325       H  0.91852657  0.96856322  0.63268218     0.36100
H1326       H  0.93604841  0.99823004  0.65652193     0.41200
H1327       H  0.85892746  0.07883385  0.52770687     0.40800
H1328       H  0.87085560  0.10892685  0.55509995     0.35700
C1329       C  0.94942500  0.56749774  0.10888983     0.03400
C1330       C  0.96337760  0.58860740  0.13429136    -0.12800
C1331       C  0.99603392  0.58882602  0.13784366     0.00900
C1332       C  0.01426174  0.56837613  0.11588619    -0.11300
C1333       C  0.00112066  0.54893047  0.08897340     0.03400
C1334       C  0.96845076  0.54775133  0.08615978    -0.10700
H1335       H  0.94912117  0.60545505  0.15005645     0.09000
H1336       H  0.03945773  0.57058197  0.11687877     0.06500
H1337       H  0.95783823  0.53269559  0.06541391     0.06300
O1338       O  0.77222341  0.93817475  0.06153068    -0.78200
C1339       C  0.75890127  0.90346073  0.94178290     0.82800
O1340       O  0.86049956  0.94543739  0.97192143    -0.79400
O1341       O  0.82281410  0.98826297  0.41125477    -0.80800
O1342       O  0.74420056  0.54188684  0.98403226    -0.80600
O1343       O  0.75467747  0.98988919  0.06545275    -0.79300
Zn1344     Zn  0.79035670  0.93259272  0.00947514     1.55700
O1345       O  0.75664397  0.51605369  0.42907484    -0.80700
Cd1346     Cd  0.77126640  0.51259423  0.02173241     1.59700
Cd1347     Cd  0.83516723  0.98481940  0.98608344     1.59600
O1348       O  0.80553172  0.54271056  0.04733276    -0.80600
O1349       O  0.79165149  0.97539323  0.98869018    -1.91200
Cd1350     Cd  0.78044541  0.97508387  0.43786507     1.59900
O1351       O  0.84764369  0.51218797  0.03683636    -0.80600
O1352       O  0.76429482  0.92748352  0.42258138    -0.79300
C1353       C  0.85898215  0.91935410  0.99015935     0.83300
C1354       C  0.75864380  0.96127881  0.07948154     0.82900
O1355       O  0.76486106  0.90263783  0.97601691    -0.78200
C1356       C  0.73925852  0.53962745  0.94935577     0.83700
O1357       O  0.83491625  0.91235558  0.00929253    -0.78300
C1358       C  0.83431022  0.53576164  0.05292476     0.83900
C1359       C  0.84435572  0.00664699  0.42381385     0.84200
O1360       O  0.84491441  0.01431678  0.45719858    -0.80700
C1361       C  0.74777227  0.87088444  0.42221736     0.03400
C1362       C  0.73371154  0.84514294  0.44203259    -0.12800
C1363       C  0.72631640  0.81512178  0.42514616     0.00900
C1364       C  0.73397655  0.81099444  0.38774067    -0.11300
C1365       C  0.74827379  0.83594530  0.36720600     0.03400
C1366       C  0.75457394  0.86592849  0.38483172    -0.10700
H1367       H  0.72880573  0.85063689  0.97274323     0.09000
H1368       H  0.72894370  0.78803041  0.37447239     0.06500
H1369       H  0.76610054  0.88509523  0.36977976     0.06300
C1370       C  0.00012771  0.80737072  0.04646168     0.03400
C1371       C  0.98681161  0.82859864  0.02063943    -0.12800
C1372       C  0.95449295  0.82846449  0.01481331     0.00900
C1373       C  0.93580253  0.80708675  0.03458401    -0.11300
C1374       C  0.94812105  0.78717952  0.06191805     0.03400
C1375       C  0.98068765  0.78684376  0.06726714    -0.10700
H1376       H  0.00121227  0.84625523  0.00669312     0.09000
H1377       H  0.91069505  0.80961198  0.03218682     0.06500
H1378       H  0.99067862  0.77230954  0.08905946     0.06300
O1379       O  0.18162220  0.69349666  0.10017927    -0.78200
C1380       C  0.19231005  0.65837102  0.22014109     0.82800
O1381       O  0.08804766  0.70588182  0.17862210    -0.79400
O1382       O  0.13145209  0.74419401  0.25597790    -0.80800
O1383       O  0.20583202  0.79743494  0.17947461    -0.80600
O1384       O  0.20146901  0.74391900  0.09738160    -0.79300
Zn1385     Zn  0.16199517  0.68866877  0.15146290     1.55700
O1386       O  0.20215762  0.77049478  0.23263178    -0.80700
Cd1387     Cd  0.17927073  0.76760880  0.14218502     1.59700
Cd1388     Cd  0.11653103  0.74432333  0.17360442     1.59600
O1389       O  0.14419081  0.79549382  0.11420029    -0.80600
O1390       O  0.16023904  0.73187667  0.17218102    -1.91200
Cd1391     Cd  0.17139508  0.73193879  0.22470428     1.59900
O1392       O  0.10286588  0.76545180  0.12755077    -0.80600
O1393       O  0.18799381  0.68451274  0.23900374    -0.79300
C1394       C  0.09154284  0.67835736  0.16343582     0.83300
C1395       C  0.19645785  0.71580765  0.08287930     0.82900
O1396       O  0.18597345  0.65759622  0.18598227    -0.78200
C1397       C  0.21182471  0.79483063  0.21389380     0.83700
O1398       O  0.11756267  0.66937197  0.14923880    -0.78300
C1399       C  0.11569054  0.78758662  0.10913157     0.83900
C1400       C  0.10956517  0.76409786  0.24713792     0.84200
O1401       O  0.10739013  0.77510266  0.21504363    -0.80700
C1402       C  0.20340725  0.62753261  0.23856634     0.03400
C1403       C  0.21701438  0.60170384  0.21803799    -0.12800
C1404       C  0.22554386  0.57181370  0.23464078     0.00900
C1405       C  0.21963304  0.56796128  0.27250789    -0.11300
C1406       C  0.20582669  0.59294467  0.29381197     0.03400
C1407       C  0.19820427  0.62281085  0.27639348    -0.10700
H1408       H  0.22117912  0.60499165  0.18913599     0.09000
H1409       H  0.22561106  0.54509074  0.28561469     0.06500
H1410       H  0.18700799  0.64208274  0.29202562     0.06300
C1411       C  0.95688975  0.73953951  0.36304555     0.03400
C1412       C  0.97643687  0.76013418  0.34258765    -0.12800
C1413       C  0.00892326  0.75916686  0.34747875     0.00900
C1414       C  0.02106419  0.74007363  0.37560813    -0.11300
C1415       C  0.00220421  0.71999762  0.39690120     0.03400
C1416       C  0.96984527  0.71961353  0.39046708    -0.10700
H1417       H  0.96650443  0.77481153  0.32089179     0.09000
H1418       H  0.04614776  0.73734338  0.37782182     0.06500
H1419       H  0.95527419  0.70236048  0.40478822     0.06300
O1420       O  0.76600149  0.88898134  0.22540655    -0.78200
C1421       C  0.75885770  0.82992711  0.32838189     0.82800
O1422       O  0.86535386  0.84532488  0.23105266    -0.79400
O1423       O  0.81406614  0.75053090  0.29115364    -0.80800
O1424       O  0.75509428  0.77625027  0.17665357    -0.80600
O1425       O  0.76708664  0.86313875  0.17159695    -0.79300
Zn1426     Zn  0.79118181  0.85875136  0.25928898     1.55700
O1427       O  0.75076652  0.74983903  0.23013152    -0.80700
Cd1428     Cd  0.78500242  0.81573563  0.18495086     1.59700
Cd1429     Cd  0.83888634  0.80552403  0.23711478     1.59600
O1430       O  0.82621384  0.80456798  0.15442473    -0.80600
O1431       O  0.79479571  0.81590871  0.23785430    -1.91200
Cd1432     Cd  0.77733816  0.77922746  0.26750101     1.59900
O1433       O  0.85002374  0.77455182  0.19621927    -0.80600
O1434       O  0.75576317  0.80139381  0.31404274    -0.79300
C1435       C  0.86083675  0.87254379  0.24652368     0.83300
C1436       C  0.76092017  0.88865696  0.19098226     0.82900
O1437       O  0.77205831  0.85316837  0.31080818    -0.78200
C1438       C  0.74528062  0.75205301  0.19558092     0.83700
O1439       O  0.83459118  0.88011080  0.26112940    -0.78300
C1440       C  0.84851618  0.78537305  0.16400110     0.83900
C1441       C  0.84199815  0.75968703  0.29760990     0.84200
O1442       O  0.85294008  0.78531630  0.28370116    -0.80700
C1443       C  0.74954283  0.91957049  0.17291233     0.03400
C1444       C  0.73542106  0.94516473  0.19347419    -0.12800
C1445       C  0.72737202  0.97538291  0.17713837     0.00900
C1446       C  0.73444686  0.97978452  0.13960509    -0.11300
C1447       C  0.74865898  0.95496200  0.11839535     0.03400
C1448       C  0.75559381  0.92481811  0.13544150    -0.10700
H1449       H  0.73057344  0.94148335  0.22216762     0.09000
H1450       H  0.72905210  0.00290908  0.12671272     0.06500
H1451       H  0.76714515  0.90574842  0.11984899     0.06300
C1452       C  0.99840667  0.98908348  0.30620010     0.03400
C1453       C  0.98678030  0.49781197  0.32534989    -0.12800
C1454       C  0.94694548  0.00597571  0.32869677     0.00900
C1455       C  0.93353351  0.98544576  0.30297368    -0.11300
C1456       C  0.95145751  0.96651269  0.27912064     0.03400
C1457       C  0.98418553  0.96773958  0.28121806    -0.10700
H1458       H  0.99651925  0.51517164  0.34432864     0.09000
H1459       H  0.90850859  0.98182710  0.30373118     0.06500
H1460       H  0.99839007  0.95186802  0.26418484     0.06300
O1461       O  0.19068280  0.64300217  0.43706723    -0.78200
C1462       C  0.19702074  0.58678043  0.33323118     0.82800
O1463       O  0.09170171  0.59713658  0.43095451    -0.79400
O1464       O  0.14847069  0.50511103  0.36962394    -0.80800
O1465       O  0.20442796  0.53130615  0.48608480    -0.80600
O1466       O  0.18910352  0.61715093  0.49081193    -0.79300
Zn1467     Zn  0.16501451  0.61379147  0.40366881     1.55700
O1468       O  0.21065737  0.50553482  0.43240602    -0.80700
Cd1469     Cd  0.17319977  0.56978903  0.47660559     1.59700
Cd1470     Cd  0.12027627  0.55875295  0.42262834     1.59600
O1471       O  0.13217946  0.55697560  0.50521432    -0.80600
O1472       O  0.16377537  0.57048766  0.42389391    -1.91200
Cd1473     Cd  0.18341296  0.53474033  0.39439801     1.59900
O1474       O  0.10984109  0.52677272  0.46248610    -0.80600
O1475       O  0.20291557  0.55867764  0.34775757    -0.79300
C1476       C  0.09514310  0.62592782  0.41948553     0.83300
C1477       C  0.19521905  0.64257231  0.47157573     0.82900
O1478       O  0.18246353  0.60928091  0.35109566    -0.78200
C1479       C  0.21531516  0.50741237  0.46721528     0.83700
O1480       O  0.12101370  0.63536527  0.40573720    -0.78300
C1481       C  0.11102110  0.53710008  0.49500610     0.83900
C1482       C  0.12111700  0.51480828  0.36041346     0.84200
O1483       O  0.10900396  0.54031295  0.37396501    -0.80700
C1484       C  0.20582714  0.67330707  0.48984893     0.03400
C1485       C  0.19983735  0.67826893  0.52734890    -0.12800
C1486       C  0.20640967  0.70942926  0.04401036     0.00900
C1487       C  0.21923162  0.73353449  0.52332943    -0.11300
C1488       C  0.22617714  0.72927235  0.48567516     0.03400
C1489       C  0.21902073  0.69903647  0.46933201    -0.10700
H1490       H  0.18898000  0.65896994  0.54287422     0.09000
H1491       H  0.22408480  0.75668114  0.53628928     0.06500
H1492       H  0.22389199  0.69542389  0.44060673     0.06300
C1493       C  0.50220789  0.81312555  0.11328256     0.03400
C1494       C  0.48370480  0.79531453  0.08867924    -0.12800
C1495       C  0.45106529  0.79673876  0.09120931     0.00900
C1496       C  0.43741115  0.81541215  0.11875839    -0.11300
C1497       C  0.45528284  0.83326673  0.14339322     0.03400
C1498       C  0.48795190  0.83213911  0.14067102    -0.10700
H1499       H  0.49468410  0.78165820  0.06672694     0.09000
H1500       H  0.41227748  0.81864363  0.11876277     0.06500
H1501       H  0.50204015  0.84712861  0.15841554     0.06300
O1502       O  0.68679008  0.65389153  0.97698364    -0.78200
C1503       C  0.69647259  0.71044333  0.07897477     0.82800
O1504       O  0.58634793  0.69936251  0.99176716    -0.79400
O1505       O  0.64505002  0.79094810  0.04914287    -0.80800
O1506       O  0.69879993  0.76455251  0.42644564    -0.80600
O1507       O  0.68685019  0.67819995  0.42256561    -0.79300
Zn1508     Zn  0.66173273  0.68368040  0.01116159     1.55700
O1509       O  0.70385187  0.79220878  0.98220276    -0.80700
Cd1510     Cd  0.66850962  0.72549866  0.43558804     1.59700
Cd1511     Cd  0.61345811  0.73882313  0.99289712     1.59600
O1512       O  0.62669451  0.73756879  0.40684923    -0.80600
O1513       O  0.65760531  0.72706834  0.99075257    -1.91200
Cd1514     Cd  0.67843231  0.76214833  0.02005962     1.59900
O1515       O  0.60334929  0.76683042  0.45012331    -0.80600
O1516       O  0.70151702  0.73836505  0.06407065    -0.79300
C1517       C  0.59187474  0.67046882  0.00189169     0.83300
C1518       C  0.69121257  0.65413440  0.94245507     0.82900
O1519       O  0.68116714  0.68820505  0.06227249    -0.78200
C1520       C  0.70771844  0.79070092  0.94730032     0.83700
O1521       O  0.61897563  0.66133584  0.01242885    -0.78300
C1522       C  0.60468035  0.75682389  0.41747285     0.83900
C1523       C  0.61659371  0.78411070  0.05605123     0.84200
O1524       O  0.60238885  0.76183638  0.03923843    -0.80700
C1525       C  0.70687886  0.62276934  0.42400232     0.03400
C1526       C  0.70159399  0.61784900  0.38643046    -0.12800
C1527       C  0.70931808  0.58809623  0.36907143     0.00900
C1528       C  0.72372703  0.56334065  0.38998365    -0.11300
C1529       C  0.73017675  0.56745708  0.42767464     0.03400
C1530       C  0.72124181  0.59729700  0.44441207    -0.10700
H1531       H  0.68982197  0.63679263  0.37098453     0.09000
H1532       H  0.72971694  0.54050080  0.37672127     0.06500
H1533       H  0.71942883  0.60042942  0.97375096     0.06300
C1534       C  0.45642868  0.54952565  0.04999734     0.03400
C1535       C  0.47600753  0.53057097  0.07295091    -0.12800
C1536       C  0.50864812  0.53392690  0.07125333     0.00900
C1537       C  0.52107041  0.55600512  0.04648444    -0.11300
C1538       C  0.50229683  0.57473273  0.02347973     0.03400
C1539       C  0.46974962  0.57192579  0.02555150    -0.10700
H1540       H  0.46581050  0.51438239  0.09295439     0.09000
H1541       H  0.54590069  0.56077081  0.04718477     0.06500
H1542       H  0.45495007  0.58749308  0.00897529     0.06300
O1543       O  0.26856812  0.90704628  0.18585426    -0.78200
C1544       C  0.26143677  0.96372409  0.08265265     0.82800
O1545       O  0.36731427  0.95578764  0.18237371    -0.79400
O1546       O  0.31163240  0.53999293  0.11334949    -0.80800
O1547       O  0.25070345  0.51976333  0.23236821    -0.80600
O1548       O  0.26670313  0.93341229  0.23916034    -0.79300
Zn1549     Zn  0.29415871  0.93778107  0.15286058     1.55700
O1550       O  0.24838415  0.54754967  0.17944916    -0.80700
Cd1551     Cd  0.28407011  0.98057059  0.22540661     1.59700
Cd1552     Cd  0.33922537  0.99486061  0.17588085     1.59600
O1553       O  0.32377106  0.99092537  0.25779056    -0.80600
O1554       O  0.29585741  0.98121433  0.17293922    -1.91200
Cd1555     Cd  0.27347775  0.51636678  0.14113977     1.59900
O1556       O  0.34698383  0.02429132  0.21918841    -0.80600
O1557       O  0.25498307  0.99158672  0.09737295    -0.79300
C1558       C  0.36383552  0.92724898  0.16992535     0.83300
C1559       C  0.26216504  0.90756375  0.22001681     0.82900
O1560       O  0.27693414  0.94173513  0.10010030    -0.78200
C1561       C  0.24207455  0.54482909  0.21388733     0.83700
O1562       O  0.33827698  0.91799021  0.15539064    -0.78300
C1563       C  0.34537216  0.01126183  0.25040787     0.83900
C1564       C  0.33767353  0.52589944  0.10549237     0.84200
O1565       O  0.34656402  0.50078386  0.12256943    -0.80700
C1566       C  0.25119972  0.87663227  0.23818832     0.03400
C1567       C  0.23711967  0.85127275  0.21777286    -0.12800
C1568       C  0.22917478  0.82117537  0.23420222     0.00900
C1569       C  0.23635810  0.81658401  0.27161538    -0.11300
C1570       C  0.25071233  0.84101769  0.29270311     0.03400
C1571       C  0.25750189  0.87113689  0.27562391    -0.10700
H1572       H  0.23209678  0.85511092  0.18915895     0.09000
H1573       H  0.23095360  0.79355574  0.28450423     0.06500
H1574       H  0.26904768  0.88997724  0.29114144     0.06300
C1575       C  0.45656469  0.73990664  0.29929231     0.03400
C1576       C  0.47130438  0.71920345  0.27383404    -0.12800
C1577       C  0.50367795  0.72129155  0.26813547     0.00900
C1578       C  0.52080266  0.74436906  0.28747299    -0.11300
C1579       C  0.50710544  0.76330634  0.31489072     0.03400
C1580       C  0.47459026  0.76180713  0.31987115    -0.10700
H1581       H  0.45806801  0.70039202  0.26024203     0.09000
H1582       H  0.54603426  0.74349325  0.28549826     0.06500
H1583       H  0.46366712  0.77573410  0.34165455     0.06300
O1584       O  0.27571588  0.85624671  0.34902591    -0.78200
C1585       C  0.26277545  0.89183410  0.46820612     0.78000
O1586       O  0.36488288  0.84174540  0.43620472    -0.79400
O1587       O  0.32301819  0.80538369  0.50517629    -0.80800
O1588       O  0.24894243  0.75286245  0.43039729    -0.80600
O1589       O  0.25546169  0.80595627  0.34590195    -0.79300
Zn1590     Zn  0.29408053  0.86038383  0.40101599     1.55700
O1591       O  0.25213267  0.78037610  0.48335914    -0.80700
Cd1592     Cd  0.27586046  0.78167599  0.39195983     1.59700
Cd1593     Cd  0.33685800  0.80390763  0.42517882     1.59600
O1594       O  0.31215078  0.75266336  0.36685241    -0.80600
O1595       O  0.29383699  0.81752049  0.42188673    -1.91200
Cd1596     Cd  0.28301675  0.81827341  0.47443471     1.59900
O1597       O  0.35267834  0.78414973  0.37909372    -0.80600
O1598       O  0.26676809  0.86595997  0.48753231    -0.79300
C1599       C  0.36334282  0.86889957  0.41992331     0.83300
C1600       C  0.26079247  0.83414508  0.33151637     0.82900
O1601       O  0.26959910  0.89218897  0.43415669    -0.78200
C1602       C  0.24285619  0.75577361  0.46488619     0.83700
O1603       O  0.33916354  0.87784757  0.40192566    -0.78300
C1604       C  0.34075413  0.76054037  0.36215426     0.83900
C1605       C  0.34266906  0.78306100  0.49617818     0.84200
O1606       O  0.34215050  0.77058671  0.46472684    -0.80700
C1607       C  0.25161657  0.92281758  0.48617632     0.03400
C1608       C  0.25615103  0.92725558  0.52404062    -0.12800
C1609       C  0.25197000  0.95731685  0.04358207     0.00900
C1610       C  0.23557946  0.98238037  0.52028357    -0.11300
C1611       C  0.23017667  0.97881053  0.48230800     0.03400
C1612       C  0.23867742  0.94889275  0.46554841    -0.10700
H1613       H  0.27037487  0.90804502  0.04179306     0.09000
H1614       H  0.22969064  0.00523642  0.53356657     0.06500
H1615       H  0.23495839  0.94575948  0.43655896     0.06300
C1616       C  0.49818401  0.98931288  0.36828279     0.03400
C1617       C  0.48752528  0.96577220  0.39304336    -0.12800
C1618       C  0.45541796  0.96074342  0.39713769     0.00900
C1619       C  0.43419671  0.98063557  0.37851901    -0.11300
C1620       C  0.44406480  0.00436369  0.35392092     0.03400
C1621       C  0.47557657  0.51916092  0.33595596    -0.10700
H1622       H  0.50399420  0.94934942  0.40611803     0.09000
H1623       H  0.40962177  0.97473745  0.38000995     0.06500
H1624       H  0.48584651  0.53405234  0.31476146     0.06300
O1625       O  0.68637559  0.60541987  0.31245770    -0.78200
C1626       C  0.69552762  0.63919405  0.19160499     0.82800
O1627       O  0.59537844  0.60120325  0.22934327    -0.79400
O1628       O  0.62902844  0.55353695  0.16043720    -0.80800
O1629       O  0.70413747  0.49966616  0.23446255    -0.80600
O1630       O  0.70219978  0.55318745  0.31647991    -0.79300
Zn1631     Zn  0.66719764  0.61121333  0.26138655     1.55700
O1632       O  0.70129743  0.52666754  0.18108583    -0.80700
Cd1633     Cd  0.67877380  0.53129960  0.27173382     1.59700
Cd1634     Cd  0.61963439  0.56078868  0.24133464     1.59600
O1635       O  0.64033482  0.50823652  0.29927988    -0.80600
O1636       O  0.66349063  0.56838981  0.24098334    -1.91200
Cd1637     Cd  0.67112858  0.56652963  0.18812612     1.59900
O1638       O  0.60650401  0.54877320  0.29132907    -0.80600
O1639       O  0.68828303  0.61368452  0.17289667    -0.79300
C1640       C  0.59893770  0.62763530  0.24644962     0.83300
C1641       C  0.69930661  0.58198273  0.33030789     0.82900
O1642       O  0.69193144  0.63998130  0.22630173    -0.78200
C1643       C  0.71039682  0.50200447  0.20002308     0.83700
O1644       O  0.62403699  0.63385038  0.26378202    -0.78300
C1645       C  0.61481127  0.52307022  0.30773547     0.83900
C1646       C  0.60722408  0.53499169  0.17222916     0.84200
O1647       O  0.60652749  0.52647508  0.20534879    -0.80700
C1648       C  0.70654931  0.66964589  0.17266131     0.03400
C1649       C  0.72055290  0.69540481  0.19253959    -0.12800
C1650       C  0.72834073  0.72527725  0.17555561     0.00900
C1651       C  0.72128143  0.72915669  0.13806677    -0.11300
C1652       C  0.70704200  0.70423583  0.11757106     0.03400
C1653       C  0.70028379  0.67443251  0.13520313    -0.10700
H1654       H  0.72551599  0.69212820  0.22125347     0.09000
H1655       H  0.72654021  0.75202220  0.12473443     0.06500
H1656       H  0.68873909  0.65532856  0.12009585     0.06300
C1657       C  0.53965213  0.96949913  0.32643633    -0.26100
C1658       C  0.52927350  0.50297329  0.35608730    -0.14100
C1659       C  0.54494603  0.53199580  0.36475991     0.36500
C1660       C  0.57628129  0.53528066  0.35521057    -0.25500
C1661       C  0.59191276  0.51107741  0.33466662    -0.14800
C1662       C  0.56925555  0.97221361  0.31016887     0.37600
N1663       N  0.57626525  0.95515913  0.27681720    -0.89000
H1664       H  0.52232588  0.95384969  0.31418862     0.18700
H1665       H  0.58716974  0.55876953  0.35937970     0.18700
N1666       N  0.52908180  0.55925438  0.38117917    -0.88000
H1667       H  0.55751535  0.94060262  0.26904751     0.36100
H1668       H  0.59500270  0.93934315  0.28201738     0.41200
H1669       H  0.51805397  0.55122316  0.40491674     0.40800
H1670       H  0.51192498  0.56772027  0.36326790     0.35700
C1671       C  0.41493255  0.88191091  0.39537709    -0.26100
C1672       C  0.39116889  0.88921324  0.42027819    -0.14100
C1673       C  0.39472223  0.91494394  0.44523873     0.36500
C1674       C  0.42057637  0.93553696  0.44171620    -0.25500
C1675       C  0.44227930  0.93095492  0.41325589    -0.14800
C1676       C  0.44061291  0.90232268  0.39154503     0.37600
N1677       N  0.46257365  0.89478377  0.36294568    -0.89000
H1678       H  0.41269269  0.86107282  0.37734227     0.18700
H1679       H  0.42179796  0.95738553  0.45833027     0.18700
N1680       N  0.37163986  0.92065113  0.47308440    -0.88000
H1681       H  0.47250515  0.87204100  0.36883661     0.36100
H1682       H  0.48106712  0.91109671  0.36241749     0.41200
H1683       H  0.35077462  0.92717040  0.46019106     0.40800
H1684       H  0.37791373  0.94047917  0.48938185     0.35700
C1685       C  0.52023316  0.66371110  0.26875510    -0.26100
C1686       C  0.52210180  0.69434049  0.25185649    -0.14100
C1687       C  0.54807520  0.70131225  0.22949340     0.36500
C1688       C  0.57321078  0.67924806  0.22775106    -0.25500
C1689       C  0.57237613  0.65014924  0.24752540    -0.14800
C1690       C  0.54524209  0.64158347  0.26676577     0.37600
N1691       N  0.54379622  0.61116687  0.28596004    -0.89000
H1692       H  0.50068856  0.65817557  0.28643442     0.18700
H1693       H  0.59362471  0.68516570  0.21165350     0.18700
N1694       N  0.54966950  0.73171482  0.21039060    -0.88000
H1695       H  0.52458527  0.59829284  0.27624766     0.36100
H1696       H  0.54000845  0.61617248  0.31359841     0.41200
H1697       H  0.55248803  0.72650850  0.18265688     0.40800
H1698       H  0.56955969  0.74399497  0.21917612     0.35700
C1699       C  0.37012740  0.75823412  0.30494699    -0.26100
C1700       C  0.36243417  0.74279608  0.33787654    -0.14100
C1701       C  0.38435056  0.72096563  0.35361651     0.36500
C1702       C  0.41430654  0.71778817  0.33847287    -0.25500
C1703       C  0.42302308  0.73641327  0.30811726    -0.14800
C1704       C  0.40025406  0.75551382  0.29025137     0.37600
N1705       N  0.40786546  0.77425479  0.25866967    -0.89000
H1706       H  0.35392384  0.77565212  0.29303361     0.18700
H1707       H  0.43161548  0.70283812  0.35225200     0.18700
N1708       N  0.37766614  0.70406903  0.38688141    -0.88000
H1709       H  0.41628451  0.75819925  0.23868645     0.36100
H1710       H  0.42569801  0.79037926  0.26544460     0.41200
H1711       H  0.35762697  0.69020646  0.38283779     0.40800
H1712       H  0.37298553  0.72119307  0.40737248     0.35700
C1713       C  0.42660287  0.01244552  0.29026153    -0.26100
C1714       C  0.42043712  0.01702761  0.32750633    -0.14100
C1715       C  0.38945343  0.02526090  0.33846751     0.36500
C1716       C  0.36514821  0.02406457  0.31288481    -0.25500
C1717       C  0.37123908  0.01688979  0.27620576    -0.14800
C1718       C  0.40249230  0.01267097  0.26446289     0.37600
N1719       N  0.40944972  0.00578624  0.22679879    -0.89000
H1720       H  0.44999270  0.00599279  0.28144399     0.18700
H1721       H  0.34134500  0.02843926  0.32178376     0.18700
N1722       N  0.38676414  0.55905305  0.35348711    -0.88000
H1723       H  0.43313604  0.00028838  0.22331301     0.36100
H1724       H  0.40532815  0.02718809  0.21202421     0.41200
H1725       H  0.40185142  0.03673395  0.39124094     0.40800
H1726       H  0.36808945  0.01616863  0.38662174     0.35700
C1727       C  0.52481794  0.52774705  0.13565340    -0.26100
C1728       C  0.53066811  0.52045627  0.09892823    -0.14100
C1729       C  0.56136091  0.51061557  0.08857102     0.36500
C1730       C  0.58611475  0.51478968  0.11307187    -0.25500
C1731       C  0.58064438  0.52582808  0.14865397    -0.14800
C1732       C  0.54931274  0.53015315  0.16065087     0.37600
N1733       N  0.54168583  0.53963744  0.19725946    -0.89000
H1734       H  0.50154694  0.53493647  0.14428388     0.18700
H1735       H  0.60980179  0.51002483  0.10399212     0.18700
N1736       N  0.56839125  0.49877320  0.05250651    -0.88000
H1737       H  0.55307339  0.56137903  0.20335599     0.36100
H1738       H  0.54929865  0.52135213  0.21506806     0.41200
H1739       H  0.57848582  0.47558511  0.05528990     0.40800
H1740       H  0.54792407  0.49524948  0.03767489     0.35700
C1741       C  0.37570627  0.51417728  0.05702760    -0.26100
C1742       C  0.36027875  0.53806710  0.07824240    -0.14100
C1743       C  0.37432509  0.56877162  0.08267788     0.36500
C1744       C  0.40523754  0.57325888  0.07028934    -0.25500
C1745       C  0.42206630  0.54745948  0.05394335    -0.14800
C1746       C  0.40656379  0.51843598  0.04543667     0.37600
N1747       N  0.42269511  0.49258171  0.02674183    -0.89000
H1748       H  0.36504690  0.49054155  0.05311409     0.18700
H1749       H  0.41704726  0.59593669  0.07605427     0.18700
N1750       N  0.35842950  0.59399999  0.10284314    -0.88000
H1751       H  0.41035803  0.48734490  0.00292094     0.36100
H1752       H  0.42235720  0.47183979  0.04331485     0.41200
H1753       H  0.33859269  0.60065262  0.08797475     0.40800
H1754       H  0.37226797  0.61481816  0.10448345     0.35700
C1755       C  0.58296946  0.78198469  0.36068560    -0.26100
C1756       C  0.57821225  0.76513461  0.39341008    -0.14100
C1757       C  0.54753155  0.75603103  0.40322053     0.36500
C1758       C  0.52302449  0.76118552  0.37900917    -0.25500
C1759       C  0.52825526  0.77448337  0.34438703    -0.14800
C1760       C  0.55811394  0.78758584  0.33643786     0.37600
N1761       N  0.56425293  0.80481627  0.30308819    -0.89000
H1762       H  0.60613384  0.79027613  0.35362000     0.18700
H1763       H  0.50054978  0.75087232  0.38574300     0.18700
N1764       N  0.54091469  0.73840787  0.43597659    -0.88000
H1765       H  0.54364842  0.80847700  0.28843087     0.36100
H1766       H  0.57195382  0.82810822  0.31014712     0.41200
H1767       H  0.54749520  0.75234430  0.45849451     0.40800
H1768       H  0.55373824  0.71664891  0.43534686     0.35700
C1769       C  0.57035116  0.61682636  0.98480607    -0.26100
C1770       C  0.56585221  0.64745080  0.00093187    -0.14100
C1771       C  0.53602414  0.65644829  0.01432617     0.36500
C1772       C  0.51240268  0.63300292  0.01548577    -0.25500
C1773       C  0.51824534  0.60102977  0.00356901    -0.14800
C1774       C  0.54652778  0.59381144  0.98497504     0.37600
N1775       N  0.55243042  0.56248227  0.96851261    -0.89000
H1776       H  0.59264618  0.61057330  0.97251446     0.18700
H1777       H  0.49075480  0.63864328  0.02957581     0.18700
N1778       N  0.53043706  0.68864014  0.02877245    -0.88000
H1779       H  0.56981022  0.55066397  0.98364506     0.36100
H1780       H  0.53256056  0.54793354  0.96939888     0.41200
H1781       H  0.54428655  0.69128292  0.05199998     0.40800
H1782       H  0.50726141  0.69128278  0.03731426     0.35700
C1783       C  0.40217296  0.76903086  0.07304838    -0.26100
C1784       C  0.42995158  0.78458637  0.06236931    -0.14100
C1785       C  0.43266599  0.79638118  0.02645649     0.36500
C1786       C  0.39926377  0.78371760  0.50424426    -0.25500
C1787       C  0.36998917  0.77588353  0.51877813    -0.14800
C1788       C  0.37605199  0.76851144  0.04993976     0.37600
N1789       N  0.34703480  0.75493842  0.06199681    -0.89000
H1790       H  0.40002254  0.75993708  0.10067916     0.18700
H1791       H  0.40080107  0.79263960  0.47647110     0.18700
N1792       N  0.46023064  0.81294797  0.01482463    -0.88000
H1793       H  0.34920318  0.74581187  0.08849760     0.36100
H1794       H  0.33002922  0.73438700  0.55325692     0.41200
H1795       H  0.45395909  0.83674863  0.00738705     0.40800
H1796       H  0.45266721  0.80192261  0.48437450     0.35700
C1797       C  0.38581019  0.87295376  0.18448609    -0.26100
C1798       C  0.39052217  0.90470553  0.17196184    -0.14100
C1799       C  0.42059238  0.91442606  0.16079248     0.36500
C1800       C  0.44436498  0.89079548  0.15776077    -0.25500
C1801       C  0.43828717  0.85793230  0.16535221    -0.14800
C1802       C  0.40961272  0.84959278  0.18209934     0.37600
N1803       N  0.40323625  0.81698857  0.19412849    -0.89000
H1804       H  0.36315894  0.86594729  0.19491532     0.18700
H1805       H  0.46632009  0.89737728  0.14518231     0.18700
N1806       N  0.42623054  0.94759124  0.14996436    -0.88000
H1807       H  0.38586327  0.80738174  0.17740907     0.36100
H1808       H  0.42297890  0.80202599  0.19148667     0.41200
H1809       H  0.41305590  0.95227043  0.12655308     0.40800
H1810       H  0.44960998  0.95063281  0.14264356     0.35700
C1811       C  0.55579240  0.79269775  0.12610264    -0.26100
C1812       C  0.53619362  0.81430583  0.10723600    -0.14100
C1813       C  0.54834822  0.83299653  0.07850173     0.36500
C1814       C  0.57912804  0.82763719  0.06679179    -0.25500
C1815       C  0.59734558  0.80260663  0.08213337    -0.14800
C1816       C  0.58631350  0.78649955  0.11378873     0.37600
N1817       N  0.60422220  0.76126897  0.13147176    -0.89000
H1818       H  0.54648723  0.77853571  0.14847649     0.18700
H1819       H  0.58705550  0.83968841  0.04218811     0.18700
N1820       N  0.52858972  0.85538891  0.05916344    -0.88000
H1821       H  0.60741045  0.76840546  0.15858348     0.36100
H1822       H  0.62653344  0.75943419  0.12007291     0.41200
H1823       H  0.53888389  0.87839572  0.06004548     0.40800
H1824       H  0.52769232  0.84795013  0.03189781     0.35700
C1825       C  0.05765650  0.50411404  0.29340194    -0.26100
C1826       C  0.04094009  0.47938256  0.31078435    -0.14100
C1827       C  0.04904231  0.96660788  0.33122167     0.36500
C1828       C  0.08000797  0.97278779  0.34213580    -0.25500
C1829       C  0.10072913  0.49632353  0.33584424    -0.14800
C1830       C  0.08747337  0.51282245  0.30574784     0.37600
N1831       N  0.10308942  0.54052282  0.29041369    -0.89000
H1832       H  0.04641277  0.51834603  0.27219080     0.18700
H1833       H  0.09128882  0.95658602  0.36148117     0.18700
N1834       N  0.03331417  0.93782112  0.34358243    -0.88000
H1835       H  0.09002352  0.55054454  0.26907342     0.36100
H1836       H  0.12405128  0.53210800  0.27900658     0.41200
H1837       H  0.01546076  0.94520853  0.36132935     0.40800
H1838       H  0.04846985  0.92304465  0.35874833     0.35700
C1839       C  0.93964464  0.90869089  0.26758736    -0.26100
C1840       C  0.93434987  0.94144852  0.25839577    -0.14100
C1841       C  0.90648726  0.95022834  0.24012755     0.36500
C1842       C  0.88295278  0.92715397  0.23556848    -0.25500
C1843       C  0.88710673  0.89522800  0.24810006    -0.14800
C1844       C  0.91630233  0.88551222  0.26271691     0.37600
N1845       N  0.92200311  0.85298387  0.27558303    -0.89000
H1846       H  0.96066264  0.90172051  0.28211438     0.18700
H1847       H  0.86098762  0.93449681  0.22334352     0.18700
N1848       N  0.90103281  0.98331961  0.22907096    -0.88000
H1849       H  0.92029877  0.83685318  0.25363294     0.36100
H1850       H  0.90494661  0.84719105  0.29489601     0.41200
H1851       H  0.88134254  0.99209836  0.24299474     0.40800
H1852       H  0.89565066  0.98319343  0.20131659     0.35700
C1853       C  0.01455830  0.66182932  0.40489509    -0.26100
C1854       C  0.01880882  0.69387531  0.41719390    -0.14100
C1855       C  0.04616063  0.70133867  0.43715647     0.36500
C1856       C  0.07083581  0.67871013  0.43803456    -0.25500
C1857       C  0.06793593  0.64808885  0.42153205    -0.14800
C1858       C  0.03878127  0.63864597  0.40722905     0.37600
N1859       N  0.03472333  0.60649287  0.39228883    -0.89000
H1860       H  0.99364613  0.65581214  0.38988393     0.18700
H1861       H  0.09257525  0.68532004  0.45099901     0.18700
N1862       N  0.05024259  0.73246273  0.45454473    -0.88000
H1863       H  0.01273467  0.60441732  0.38028550     0.36100
H1864       H  0.03495700  0.59002680  0.41404057     0.41200
H1865       H  0.02994593  0.74669522  0.45279894     0.40800
H1866       H  0.06792659  0.74481717  0.44074561     0.35700
C1867       C  0.86892679  0.74924205  0.35554368    -0.26100
C1868       C  0.86451554  0.74035333  0.31891956    -0.14100
C1869       C  0.88944518  0.72518942  0.29971270     0.36500
C1870       C  0.91890107  0.72308348  0.31591155    -0.25500
C1871       C  0.92414776  0.73536257  0.35101197    -0.14800
C1872       C  0.89866124  0.74690347  0.37181257     0.37600
N1873       N  0.90359681  0.75858677  0.40821298    -0.89000
H1874       H  0.85011929  0.76150010  0.37004770     0.18700
H1875       H  0.93835780  0.71367013  0.30001672     0.18700
N1876       N  0.88650331  0.71500745  0.26231694    -0.88000
H1877       H  0.88263536  0.76701869  0.41960942     0.36100
H1878       H  0.91827067  0.77869113  0.40621193     0.41200
H1879       H  0.86343831  0.71707681  0.25346577     0.40800
H1880       H  0.89202765  0.69012039  0.26116916     0.35700
C1881       C  0.06081760  0.78222450  0.33109551    -0.26100
C1882       C  0.03148521  0.77075161  0.31939329    -0.14100
C1883       C  0.02758817  0.76257225  0.28216640     0.36500
C1884       C  0.05335361  0.76373966  0.25869322    -0.25500
C1885       C  0.08324056  0.77065060  0.27184150    -0.14800
C1886       C  0.08703981  0.78100746  0.30798674     0.37600
N1887       N  0.11749693  0.78907721  0.32130782    -0.89000
H1888       H  0.06388066  0.78920227  0.35936812     0.18700
H1889       H  0.05063544  0.75608229  0.23056707     0.18700
N1890       N  0.99848823  0.75018050  0.26882608    -0.88000
H1891       H  0.11632685  0.79589606  0.34876702     0.36100
H1892       H  0.12509422  0.80952071  0.30687952     0.41200
H1893       H  0.99537502  0.72708839  0.28029830     0.40800
H1894       H  0.99935415  0.74667080  0.24058773     0.35700
C1895       C  0.93061682  0.78468757  0.12620778    -0.26100
C1896       C  0.92572439  0.77524900  0.08995377    -0.14100
C1897       C  0.89600261  0.76337392  0.07983891     0.36500
C1898       C  0.87081498  0.76608406  0.10448041    -0.25500
C1899       C  0.87530974  0.77858580  0.13959819    -0.14800
C1900       C  0.90584995  0.78617770  0.15124216     0.37600
N1901       N  0.91119808  0.79812703  0.18758555    -0.89000
H1902       H  0.95321004  0.79378232  0.13429258     0.18700
H1903       H  0.84759568  0.75914862  0.09606348     0.18700
N1904       N  0.89124674  0.75051879  0.04380485    -0.88000
H1905       H  0.93436482  0.80533513  0.19072128     0.36100
H1906       H  0.90807501  0.77863574  0.20554788     0.41200
H1907       H  0.90514839  0.72953764  0.04124379     0.40800
H1908       H  0.86813133  0.74318464  0.04052761     0.35700
C1909       C  0.07487744  0.82765729  0.09597136    -0.26100
C1910       C  0.09512182  0.80341604  0.08227428    -0.14100
C1911       C  0.08564234  0.78488742  0.05165694     0.36500
C1912       C  0.05495447  0.78798964  0.03875514    -0.25500
C1913       C  0.03371616  0.80953873  0.05535925    -0.14800
C1914       C  0.04412031  0.83077723  0.08292760     0.37600
N1915       N  0.02264897  0.85352620  0.09953217    -0.89000
H1916       H  0.08175636  0.84139643  0.11986706     0.18700
H1917       H  0.04710951  0.77202850  0.01713903     0.18700
N1918       N  0.10558521  0.76036714  0.03556274    -0.88000
H1919       H  0.03369177  0.86677078  0.12009506     0.36100
H1920       H  0.01602256  0.87039902  0.07956680     0.41200
H1921       H  0.12785477  0.76094400  0.04704104     0.40800
H1922       H  0.10850185  0.76641423  0.00807721     0.35700
C1923       C  0.90132397  0.00715418  0.41559674    -0.26100
C1924       C  0.87176804  0.01521750  0.40160045    -0.14100
C1925       C  0.86943199  0.02931118  0.36681063     0.36500
C1926       C  0.89657539  0.03226757  0.34542412    -0.25500
C1927       C  0.92543173  0.01911851  0.35719569    -0.14800
C1928       C  0.92800658  0.00839765  0.39372649     0.37600
N1929       N  0.95665144  0.99602468  0.40853753    -0.89000
H1930       H  0.90336558  0.99712654  0.44286152     0.18700
H1931       H  0.89449228  0.04104170  0.31764941     0.18700
N1932       N  0.83965326  0.03996153  0.35311847    -0.88000
H1933       H  0.97320018  0.01454739  0.40776154     0.36100
H1934       H  0.96443154  0.97628786  0.39277615     0.41200
H1935       H  0.82599176  0.01928288  0.34918709     0.40800
H1936       H  0.84222046  0.05077329  0.32747992     0.35700
C1937       C  0.88757427  0.86976100  0.96994183    -0.26100
C1938       C  0.88675352  0.89835556  0.99071231    -0.14100
C1939       C  0.91303398  0.90753485  0.01118663     0.36500
C1940       C  0.93844733  0.88586090  0.01384072    -0.25500
C1941       C  0.93781855  0.85539831  0.99640159    -0.14800
C1942       C  0.91310012  0.84833836  0.97216238     0.37600
N1943       N  0.91237411  0.81858257  0.95150855    -0.89000
H1944       H  0.86792372  0.86357973  0.95281269     0.18700
H1945       H  0.95717174  0.89122950  0.03266513     0.18700
N1946       N  0.91279353  0.93772513  0.03126036    -0.88000
H1947       H  0.89444961  0.80428671  0.96212168     0.36100
H1948       H  0.93318849  0.80538135  0.95443120     0.41200
H1949       H  0.91243609  0.95679676  0.01234716     0.40800
H1950       H  0.93340924  0.94020194  0.04614184     0.35700
C1951       C  0.05018422  0.51978940  0.07233962    -0.26100
C1952       C  0.02297472  0.53635554  0.06062023    -0.14100
C1953       C  0.02247201  0.54977583  0.02507897     0.36500
C1954       C  0.05534646  0.54293159  0.50829478    -0.25500
C1955       C  0.08434503  0.53005875  0.51876511    -0.14800
C1956       C  0.07773767  0.52001256  0.05129715     0.37600
N1957       N  0.10593875  0.50508614  0.06462316    -0.89000
H1958       H  0.05080345  0.50960129  0.09959809     0.18700
H1959       H  0.05322334  0.55621751  0.48283169     0.18700
N1960       N  0.99603677  0.56743619  0.01122867    -0.88000
H1961       H  0.10203936  0.49427696  0.09002350     0.36100
H1962       H  0.13226861  0.51627664  0.56582497     0.41200
H1963       H  0.99078779  0.58683637  0.02882913     0.40800
H1964       H  0.98350082  0.54300698  0.51971627     0.35700
C1965       C  0.01150220  0.64603640  0.14146056    -0.26100
C1966       C  0.01318934  0.61478222  0.15694439    -0.14100
C1967       C  0.03918891  0.60637335  0.17900183     0.36500
C1968       C  0.06470081  0.62738615  0.18054447    -0.25500
C1969       C  0.06421315  0.65712250  0.16191137    -0.14800
C1970       C  0.03691525  0.66731528  0.14356470     0.37600
N1971       N  0.03582564  0.69842427  0.12542773    -0.89000
H1972       H  0.99183970  0.65241749  0.12426753     0.18700
H1973       H  0.08520531  0.62023181  0.19593362     0.18700
N1974       N  0.04135080  0.57555775  0.19760005    -0.88000
H1975       H  0.01409752  0.70218805  0.11315416     0.36100
H1976       H  0.05231387  0.69782767  0.10436297     0.41200
H1977       H  0.02053233  0.56269496  0.19522111     0.40800
H1978       H  0.04391170  0.58048987  0.22540754     0.35700
C1979       C  0.86542335  0.54063880  0.10868254    -0.26100
C1980       C  0.85481534  0.55532659  0.07634496    -0.14100
C1981       C  0.87318991  0.57958723  0.05974284     0.36500
C1982       C  0.90327129  0.58576917  0.07327603    -0.25500
C1983       C  0.91525246  0.56799996  0.10283836    -0.14800
C1984       C  0.89557502  0.54674870  0.12211639     0.37600
N1985       N  0.90725383  0.52937842  0.15331353    -0.89000
H1986       H  0.85158873  0.52159988  0.12106670     0.18700
H1987       H  0.91841320  0.60240110  0.05881478     0.18700
N1988       N  0.86238802  0.59565639  0.02721259    -0.88000
H1989       H  0.88998030  0.51427320  0.16401856     0.36100
H1990       H  0.91213919  0.54661303  0.17348575     0.41200
H1991       H  0.86136526  0.57826774  0.00637019     0.40800
H1992       H  0.87844570  0.61313023  0.01869662     0.35700
C1993       C  0.95916490  0.55019276  0.61762074     0.03400
C1994       C  0.97243765  0.57172005  0.64316790    -0.12800
C1995       C  0.00514512  0.57361601  0.64621779     0.00900
C1996       C  0.02395414  0.55480357  0.62302412    -0.11300
C1997       C  0.01125166  0.53528559  0.59595360     0.03400
C1998       C  0.97880918  0.53192832  0.59419874    -0.10700
H1999       H  0.95757429  0.58724366  0.65982912     0.09000
H2000       H  0.04898138  0.55852317  0.62303469     0.06500
H2001       H  0.96873701  0.51667083  0.57324689     0.06300
O2002       O  0.76446934  0.93737961  0.56188327    -0.78200
C2003       C  0.75799158  0.90164970  0.44122358     0.82800
O2004       O  0.85333936  0.93809962  0.47527126    -0.79400
O2005       O  0.82227716  0.99074195  0.90618331    -0.80800
O2006       O  0.75353933  0.54309723  0.48243684    -0.80600
O2007       O  0.75214884  0.99067171  0.56652805    -0.79300
Zn2008     Zn  0.78446194  0.93092059  0.51170823     1.55700
O2009       O  0.74956264  0.51529300  0.93070049    -0.80700
Cd2010     Cd  0.77948116  0.51190473  0.51979577     1.59700
Cd2011     Cd  0.83142262  0.97900849  0.49127104     1.59600
O2012       O  0.81578620  0.53647908  0.54948469    -0.80600
O2013       O  0.78750515  0.97339369  0.49067351    -1.91200
Cd2014     Cd  0.78174389  0.97667892  0.93628196     1.59900
O2015       O  0.85579559  0.50496901  0.53295852    -0.80600
O2016       O  0.76445677  0.92918121  0.92260311    -0.79300
C2017       C  0.85208500  0.91463115  0.49738636     0.83300
C2018       C  0.75330600  0.96161589  0.58003804     0.82900
O2019       O  0.76172884  0.90088289  0.47591376    -0.78200
C2020       C  0.74738394  0.54068939  0.44797730     0.83700
O2021       O  0.82825368  0.91040640  0.51776857    -0.78300
C2022       C  0.84393966  0.52632141  0.55378933     0.83900
C2023       C  0.84287553  0.01121618  0.91674368     0.84200
O2024       O  0.84386600  0.02021557  0.94970801    -0.80700
C2025       C  0.74710611  0.87291372  0.92357668     0.03400
C2026       C  0.73314855  0.84729018  0.94386830    -0.12800
C2027       C  0.72454386  0.81751225  0.92695798     0.00900
C2028       C  0.73096155  0.81360802  0.88925940    -0.11300
C2029       C  0.74521805  0.83834965  0.86848075     0.03400
C2030       C  0.75253694  0.86805213  0.88594970    -0.10700
H2031       H  0.72825052  0.84861811  0.47063515     0.09000
H2032       H  0.72519285  0.79085225  0.87597175     0.06500
H2033       H  0.76401588  0.88702041  0.87053061     0.06300
C2034       C  0.99683570  0.80505470  0.55363371     0.03400
C2035       C  0.98293592  0.82784907  0.53006092    -0.12800
C2036       C  0.95062349  0.82762511  0.52500907     0.00900
C2037       C  0.93241086  0.80472516  0.54304182    -0.11300
C2038       C  0.94526920  0.78368852  0.56894629     0.03400
C2039       C  0.97791933  0.78327606  0.57349953    -0.10700
H2040       H  0.99689227  0.84656713  0.51727959     0.09000
H2041       H  0.90724562  0.80705355  0.54093013     0.06500
H2042       H  0.98836396  0.76770291  0.59407924     0.06300
O2043       O  0.18239233  0.69103777  0.60098544    -0.78200
C2044       C  0.19413725  0.65595391  0.72108622     0.82800
O2045       O  0.08953940  0.69842477  0.68076996    -0.79400
O2046       O  0.12853276  0.73963253  0.75523765    -0.80800
O2047       O  0.20385862  0.79489705  0.68130599    -0.80600
O2048       O  0.19948852  0.74261330  0.59801758    -0.79300
Zn2049     Zn  0.16380749  0.68491964  0.65275737     1.55700
O2050       O  0.19979495  0.76843712  0.73472166    -0.80700
Cd2051     Cd  0.17758853  0.76486405  0.64407780     1.59700
Cd2052     Cd  0.11617044  0.73787511  0.67301347     1.59600
O2053       O  0.14090617  0.79244007  0.61878713    -0.80600
O2054       O  0.16031126  0.72795777  0.67348161    -1.91200
Cd2055     Cd  0.17009561  0.72882306  0.72608531     1.59900
O2056       O  0.10317812  0.75614945  0.62506196    -0.80600
O2057       O  0.18767111  0.68162843  0.74003927    -0.79300
C2058       C  0.09439229  0.67033487  0.66755558     0.83300
C2059       C  0.19582583  0.71424511  0.58350492     0.82900
O2060       O  0.18963679  0.65528437  0.68655823    -0.78200
C2061       C  0.20947982  0.79271036  0.71583415     0.83700
O2062       O  0.12058666  0.66246729  0.65296266    -0.78300
C2063       C  0.11393930  0.78155614  0.61044829     0.83900
C2064       C  0.10610505  0.75841961  0.74518767     0.84200
O2065       O  0.10476040  0.76940437  0.71299320    -0.80700
C2066       C  0.20506561  0.62530382  0.73992399     0.03400
C2067       C  0.21915314  0.59917448  0.72023885    -0.12800
C2068       C  0.22687915  0.56929140  0.73753673     0.00900
C2069       C  0.21941205  0.56575724  0.77502806    -0.11300
C2070       C  0.20513371  0.59115437  0.79529243     0.03400
C2071       C  0.19858578  0.62092402  0.77739937    -0.10700
H2072       H  0.22427383  0.60220316  0.69151296     0.09000
H2073       H  0.22457647  0.54289746  0.78861606     0.06500
H2074       H  0.18699952  0.64038347  0.79234464     0.06300
C2075       C  0.95010944  0.72910894  0.85642179     0.03400
C2076       C  0.96984293  0.74835139  0.83451733    -0.12800
C2077       C  0.00218072  0.74872959  0.84071679     0.00900
C2078       C  0.01396490  0.73144725  0.87044081    -0.11300
C2079       C  0.99491960  0.71236288  0.89256064     0.03400
C2080       C  0.96281072  0.71095028  0.88543189    -0.10700
H2081       H  0.96005704  0.76196619  0.81190324     0.09000
H2082       H  0.03902724  0.72948976  0.87391699     0.06500
H2083       H  0.94821218  0.69455494  0.90094728     0.06300
O2084       O  0.76219677  0.89105882  0.72712132    -0.78200
C2085       C  0.75511542  0.83223314  0.82956936     0.82800
O2086       O  0.86267784  0.84437684  0.73740549    -0.79400
O2087       O  0.80669245  0.74999391  0.79079219    -0.80800
O2088       O  0.75141965  0.77790331  0.67749327    -0.80600
O2089       O  0.76465342  0.86533967  0.67329210    -0.79300
Zn2090     Zn  0.78772376  0.86079224  0.76059699     1.55700
O2091       O  0.74442132  0.75258208  0.73115631    -0.80700
Cd2092     Cd  0.78196454  0.81715989  0.68688553     1.59700
Cd2093     Cd  0.83442794  0.80597419  0.74306943     1.59600
O2094       O  0.82430831  0.80411276  0.65925438    -0.80600
O2095       O  0.79059493  0.81756396  0.73985812    -1.91200
Cd2096     Cd  0.77145467  0.78117431  0.76851238     1.59900
O2097       O  0.84685232  0.77474950  0.70288681    -0.80600
O2098       O  0.75099340  0.80387590  0.81518720    -0.79300
C2099       C  0.85810783  0.87301566  0.74908759     0.83300
C2100       C  0.75779184  0.89085249  0.69257820     0.82900
O2101       O  0.76890190  0.85514538  0.81206050    -0.78200
C2102       C  0.74026491  0.75427181  0.69636666     0.83700
O2103       O  0.83141934  0.88223731  0.76128417    -0.78300
C2104       C  0.84608771  0.78475380  0.67023841     0.83900
C2105       C  0.83391564  0.75878224  0.80076594     0.84200
O2106       O  0.84478274  0.78607824  0.79150653    -0.80700
C2107       C  0.74628244  0.92187304  0.67434967     0.03400
C2108       C  0.73371244  0.94854792  0.69479479    -0.12800
C2109       C  0.72560170  0.97864229  0.67779770     0.00900
C2110       C  0.73100436  0.98179679  0.63993282    -0.11300
C2111       C  0.74373333  0.95608369  0.61899181     0.03400
C2112       C  0.75064620  0.92610781  0.63646188    -0.10700
H2113       H  0.73006508  0.94581327  0.72385864     0.09000
H2114       H  0.72561968  0.00472401  0.62659124     0.06500
H2115       H  0.76112713  0.90643054  0.62079618     0.06300
C2116       C  0.99616434  0.99169871  0.80063342     0.03400
C2117       C  0.97426847  0.51614700  0.81899246    -0.12800
C2118       C  0.94426660  0.01036933  0.82011758     0.00900
C2119       C  0.93137039  0.98824329  0.79566997    -0.11300
C2120       C  0.94962825  0.96794553  0.77360208     0.03400
C2121       C  0.98233710  0.96896878  0.77681898    -0.10700
H2122       H  0.98359806  0.53375295  0.83800309     0.09000
H2123       H  0.90639267  0.98440883  0.79626994     0.06500
H2124       H  0.99679834  0.95179352  0.76176541     0.06300
O2125       O  0.18673481  0.64522692  0.93643464    -0.78200
C2126       C  0.19454350  0.58570697  0.83403344     0.82800
O2127       O  0.09281844  0.60323971  0.94152100    -0.79400
O2128       O  0.13669291  0.51276658  0.86572673    -0.80800
O2129       O  0.19830732  0.53208669  0.98374840    -0.80600
O2130       O  0.18635098  0.61896710  0.99000455    -0.79300
Zn2131     Zn  0.16161221  0.61530512  0.90274678     1.55700
O2132       O  0.20014800  0.50436047  0.93068986    -0.80700
Cd2133     Cd  0.16862409  0.57196280  0.97645619     1.59700
Cd2134     Cd  0.11652233  0.56340131  0.92618030     1.59600
O2135       O  0.12679796  0.56067449  0.00535752    -0.80600
O2136       O  0.15997480  0.57272830  0.92390121    -1.91200
Cd2137     Cd  0.17497003  0.53565244  0.89334352     1.59900
O2138       O  0.10615571  0.52900655  0.96318951    -0.80600
O2139       O  0.19837828  0.55740363  0.84870437    -0.79300
C2140       C  0.09353900  0.62876999  0.92238517     0.83300
C2141       C  0.19228436  0.64448576  0.97076178     0.82900
O2142       O  0.18052524  0.60906487  0.85111992    -0.78200
C2143       C  0.20679847  0.50708391  0.96494983     0.83700
O2144       O  0.11703287  0.63554675  0.90219541    -0.78300
C2145       C  0.10578272  0.54056998  0.99516837     0.83900
C2146       C  0.11042515  0.52665118  0.85873309     0.84200
O2147       O  0.10102570  0.55102393  0.87697295    -0.80700
C2148       C  0.20416448  0.67484584  0.98898293     0.03400
C2149       C  0.19864890  0.67985334  0.02657831    -0.12800
C2150       C  0.20591730  0.70839820  0.54452031     0.00900
C2151       C  0.22102239  0.73389038  0.02311255    -0.11300
C2152       C  0.22748954  0.72968426  0.98542292     0.03400
C2153       C  0.21851534  0.70008163  0.96864495    -0.10700
H2154       H  0.18685559  0.66110015  0.04199968     0.09000
H2155       H  0.22710092  0.75660236  0.03629678     0.06500
H2156       H  0.22295076  0.69652739  0.93981700     0.06300
C2157       C  0.49697255  0.80508829  0.60926392     0.03400
C2158       C  0.47790398  0.78525228  0.58732726    -0.12800
C2159       C  0.44530762  0.78722648  0.59055581     0.00900
C2160       C  0.43238179  0.80805043  0.61658326    -0.11300
C2161       C  0.45072706  0.82748977  0.63898319     0.03400
C2162       C  0.48332806  0.82622849  0.63517816    -0.10700
H2163       H  0.48835889  0.76997672  0.56638065     0.09000
H2164       H  0.40729774  0.81169448  0.61691644     0.06500
H2165       H  0.49778955  0.84260979  0.65083122     0.06300
O2166       O  0.68985708  0.65292788  0.47660971    -0.78200
C2167       C  0.69368790  0.71126733  0.57887420     0.82800
O2168       O  0.58921051  0.69586477  0.48226623    -0.79400
O2169       O  0.64031863  0.78999835  0.54188592    -0.80800
O2170       O  0.69656515  0.76706152  0.92844452    -0.80600
O2171       O  0.68475393  0.67968233  0.92335005    -0.79300
Zn2172     Zn  0.66278324  0.68197190  0.50948553     1.55700
O2173       O  0.70367571  0.79085834  0.47990390    -0.80700
Cd2174     Cd  0.66690385  0.72709631  0.93763784     1.59700
Cd2175     Cd  0.61558414  0.73516281  0.48980720     1.59600
O2176       O  0.62504009  0.73694327  0.90834148    -0.80600
O2177       O  0.65945709  0.72488313  0.48838495    -1.91200
Cd2178     Cd  0.67694471  0.76163499  0.51749837     1.59900
O2179       O  0.59893827  0.76576268  0.94980986    -0.80600
O2180       O  0.69787056  0.73942948  0.56406953    -0.79300
C2181       C  0.59376459  0.66747081  0.49445364     0.83300
C2182       C  0.69441018  0.65319715  0.44208241     0.82900
O2183       O  0.68024466  0.68806036  0.56151754    -0.78200
C2184       C  0.70902913  0.78859038  0.44527725     0.83700
O2185       O  0.61988791  0.65899811  0.50856290    -0.78300
C2186       C  0.60151776  0.75464632  0.91768862     0.83900
C2187       C  0.61373741  0.77890693  0.55156556     0.84200
O2188       O  0.60337588  0.75263492  0.53859543    -0.80700
C2189       C  0.70214798  0.62303997  0.92419451     0.03400
C2190       C  0.69684527  0.61803858  0.88652160    -0.12800
C2191       C  0.70363206  0.58776166  0.86948350     0.00900
C2192       C  0.71669094  0.56253512  0.89092473    -0.11300
C2193       C  0.72276791  0.56659554  0.92863636     0.03400
C2194       C  0.71509620  0.59697198  0.94492744    -0.10700
H2195       H  0.68616054  0.63743287  0.87071264     0.09000
H2196       H  0.72205140  0.53935619  0.87804906     0.06500
H2197       H  0.72549494  0.60073033  0.47325414     0.06300
C2198       C  0.45839956  0.55028390  0.54936335     0.03400
C2199       C  0.47840418  0.53079934  0.57104115    -0.12800
C2200       C  0.51095454  0.53300236  0.56737792     0.00900
C2201       C  0.52293924  0.55432088  0.54151793    -0.11300
C2202       C  0.50381282  0.57308285  0.51887102     0.03400
C2203       C  0.47122428  0.57162635  0.52330825    -0.10700
H2204       H  0.46860710  0.51522044  0.59191733     0.09000
H2205       H  0.54783308  0.55860839  0.54115688     0.06500
H2206       H  0.45610443  0.58740228  0.50738915     0.06300
O2207       O  0.26359702  0.90488651  0.68510393    -0.78200
C2208       C  0.25724901  0.96273201  0.58089847     0.82800
O2209       O  0.36295323  0.95124134  0.67501509    -0.79400
O2210       O  0.31487338  0.53896819  0.61961718    -0.80800
O2211       O  0.25286025  0.51741907  0.73706569    -0.80600
O2212       O  0.26805366  0.93051250  0.73882210    -0.79300
Zn2213     Zn  0.28875660  0.93417719  0.65071202     1.55700
O2214       O  0.25101813  0.54443292  0.68364080    -0.80700
Cd2215     Cd  0.28392304  0.97822367  0.72376491     1.59700
Cd2216     Cd  0.33375604  0.98858336  0.66600708     1.59600
O2217       O  0.32660921  0.99251819  0.74832339    -0.80600
O2218       O  0.29061941  0.97714540  0.67075998    -1.91200
Cd2219     Cd  0.27768897  0.51376545  0.64669556     1.59900
O2220       O  0.34500383  0.02279393  0.70307964    -0.80600
O2221       O  0.25217620  0.99098558  0.59542974    -0.79300
C2222       C  0.35901847  0.92246235  0.66382714     0.83300
C2223       C  0.26041509  0.90525875  0.71988684     0.82900
O2224       O  0.27096990  0.93966754  0.59864676    -0.78200
C2225       C  0.24416467  0.54211190  0.71792410     0.83700
O2226       O  0.33278219  0.91308413  0.65117191    -0.78300
C2227       C  0.34654580  0.01283958  0.73572008     0.83900
C2228       C  0.34318662  0.52905898  0.61625712     0.84200
O2229       O  0.35448876  0.50736286  0.63690361    -0.80700
C2230       C  0.24918232  0.87477232  0.73868995     0.03400
C2231       C  0.23484666  0.84918101  0.71881490    -0.12800
C2232       C  0.22656735  0.81945060  0.73586170     0.00900
C2233       C  0.23347554  0.81557083  0.77341007    -0.11300
C2234       C  0.24798163  0.84032680  0.79389984     0.03400
C2235       C  0.25522535  0.86996392  0.77619850    -0.10700
H2236       H  0.23001035  0.85247433  0.69007621     0.09000
H2237       H  0.22783675  0.79284731  0.78682626     0.06500
H2238       H  0.26694413  0.88893602  0.79132824     0.06300
C2239       C  0.45252442  0.73151658  0.79494868     0.03400
C2240       C  0.46578657  0.71057127  0.76864203    -0.12800
C2241       C  0.49828275  0.70997274  0.76359749     0.00900
C2242       C  0.51706365  0.72978170  0.78524631    -0.11300
C2243       C  0.50457575  0.74988050  0.81232782     0.03400
C2244       C  0.47198846  0.75107364  0.81672308    -0.10700
H2245       H  0.45113570  0.69425697  0.75314025     0.09000
H2246       H  0.54216559  0.72653044  0.78384858     0.06500
H2247       H  0.46178983  0.76614115  0.83802339     0.06300
O2248       O  0.27254288  0.85685304  0.84984572    -0.78200
C2249       C  0.26327148  0.89106793  0.97029891     0.78000
O2250       O  0.36665489  0.84718752  0.92425146    -0.79400
O2251       O  0.32848206  0.80629413  0.00211113    -0.80800
O2252       O  0.24969365  0.75353297  0.93018002    -0.80600
O2253       O  0.25393159  0.80592171  0.84714632    -0.79300
Zn2254     Zn  0.29161091  0.86161073  0.90110917     1.55700
O2255       O  0.25605662  0.77951712  0.98362038    -0.80700
Cd2256     Cd  0.27616156  0.78251177  0.89209766     1.59700
Cd2257     Cd  0.33968265  0.80758676  0.91876560     1.59600
O2258       O  0.31093228  0.75355277  0.86475812    -0.80600
O2259       O  0.29558979  0.81839071  0.92119951    -1.91200
Cd2260     Cd  0.28672177  0.81810581  0.97417706     1.59900
O2261       O  0.35084065  0.78728021  0.87087502    -0.80600
O2262       O  0.27029125  0.86563459  0.98926267    -0.79300
C2263       C  0.36108565  0.87576506  0.91286288     0.83300
C2264       C  0.25823793  0.83416989  0.83263635     0.82900
O2265       O  0.26667358  0.89121470  0.93559731    -0.78200
C2266       C  0.24501083  0.75579353  0.96493165     0.83700
O2267       O  0.33437037  0.88389859  0.90021026    -0.78300
C2268       C  0.33835889  0.76287921  0.85589195     0.83900
C2269       C  0.35111280  0.78787579  0.99165115     0.84200
O2270       O  0.35285518  0.77736957  0.95924126    -0.80700
C2271       C  0.25265578  0.92204123  0.98886821     0.03400
C2272       C  0.25895209  0.92720534  0.02632709    -0.12800
C2273       C  0.24868462  0.95706219  0.54150701     0.00900
C2274       C  0.23791767  0.98222869  0.02246829    -0.11300
C2275       C  0.23085263  0.97791604  0.98496555     0.03400
C2276       C  0.23864888  0.94771189  0.96853591    -0.10700
H2277       H  0.26683300  0.90777082  0.53972099     0.09000
H2278       H  0.23247488  0.00532524  0.03547727     0.06500
H2279       H  0.23358443  0.94406948  0.93990793     0.06300
C2280       C  0.49888832  0.98748137  0.84834999     0.03400
C2281       C  0.48514173  0.96802240  0.87542943    -0.12800
C2282       C  0.45258246  0.96799337  0.87965149     0.00900
C2283       C  0.43438688  0.98826315  0.85745164    -0.11300
C2284       C  0.44753417  0.00829779  0.83093117     0.03400
C2285       C  0.48219778  0.49010419  0.83671884    -0.10700
H2286       H  0.49960785  0.95211532  0.89198166     0.09000
H2287       H  0.40923610  0.98610550  0.85850611     0.06500
H2288       H  0.49102178  0.50838248  0.81812606     0.06300
O2289       O  0.68137607  0.60458755  0.81207948    -0.78200
C2290       C  0.69308638  0.63978935  0.69156326     0.82800
O2291       O  0.59090080  0.59101626  0.73517125    -0.79400
O2292       O  0.62953948  0.55317606  0.65905434    -0.80800
O2293       O  0.70976649  0.50194079  0.73097121    -0.80600
O2294       O  0.69970475  0.55310067  0.81609446    -0.79300
Zn2295     Zn  0.66399013  0.60961300  0.75972822     1.55700
O2296       O  0.70249591  0.52719530  0.67718477    -0.80700
Cd2297     Cd  0.68150003  0.52971445  0.76863055     1.59700
Cd2298     Cd  0.61947788  0.55322839  0.74222210     1.59600
O2299       O  0.64644597  0.49764922  0.78958788    -0.80600
O2300       O  0.66261490  0.56612183  0.73963337    -1.91200
Cd2301     Cd  0.67122691  0.56613240  0.68667219     1.59900
O2302       O  0.60806812  0.53396787  0.79060689    -0.80600
O2303       O  0.68682614  0.61423633  0.67243519    -0.79300
C2304       C  0.59407461  0.62012317  0.74541747     0.83300
C2305       C  0.69483494  0.58159772  0.83021436     0.82900
O2306       O  0.68919042  0.63989165  0.72623651    -0.78200
C2307       C  0.71402596  0.50366263  0.69613943     0.83700
O2308       O  0.61986872  0.63057388  0.75818071    -0.78300
C2309       C  0.61900249  0.50645631  0.79957483     0.83900
C2310       C  0.60864942  0.53297369  0.66950104     0.84200
O2311       O  0.60846769  0.52201769  0.70176992    -0.80700
C2312       C  0.70320495  0.67093347  0.67302916     0.03400
C2313       C  0.71629801  0.69714384  0.69311503    -0.12800
C2314       C  0.72353992  0.72731559  0.67623059     0.00900
C2315       C  0.71664782  0.73105775  0.63868731    -0.11300
C2316       C  0.70333983  0.70568802  0.61795681     0.03400
C2317       C  0.69718600  0.67566624  0.63548974    -0.10700
H2318       H  0.72120549  0.69389593  0.72184430     0.09000
H2319       H  0.72155039  0.75405820  0.62544876     0.06500
H2320       H  0.68644462  0.65620381  0.62013594     0.06300
C2321       C  0.54451176  0.97377309  0.80910378    -0.26100
C2322       C  0.53676053  0.46891880  0.84372849    -0.14100
C2323       C  0.55788436  0.48515549  0.86676904     0.36500
C2324       C  0.58775012  0.49283446  0.85385817    -0.25500
C2325       C  0.59699593  0.48466096  0.81821160    -0.14800
C2326       C  0.57556138  0.97927537  0.79845130     0.37600
N2327       N  0.58630325  0.96945549  0.76289179    -0.89000
H2328       H  0.52872128  0.96162634  0.79060271     0.18700
H2329       H  0.60259062  0.50814377  0.87039116     0.18700
N2330       N  0.54876420  0.49619930  0.90233538    -0.88000
H2331       H  0.56875978  0.95713441  0.74888752     0.36100
H2332       H  0.60458213  0.95272631  0.76658813     0.41200
H2333       H  0.54186847  0.47593047  0.91753610     0.40800
H2334       H  0.52956379  0.51193147  0.89966694     0.35700
C2335       C  0.41645162  0.88791112  0.90114456    -0.26100
C2336       C  0.38702055  0.89901483  0.91293585    -0.14100
C2337       C  0.38319295  0.93171107  0.92407544     0.36500
C2338       C  0.40805911  0.95334944  0.91936341    -0.25500
C2339       C  0.43564857  0.94333884  0.90142702    -0.14800
C2340       C  0.44065600  0.90984905  0.89475429     0.37600
N2341       N  0.46913896  0.89833354  0.87856039    -0.89000
H2342       H  0.41995641  0.86244966  0.89402159     0.18700
H2343       H  0.40452162  0.97899739  0.92555189     0.18700
N2344       N  0.35415330  0.94293980  0.93953433    -0.88000
H2345       H  0.46380109  0.88693056  0.85385294     0.36100
H2346       H  0.47891437  0.88080885  0.89591414     0.41200
H2347       H  0.33751506  0.94312552  0.91876343     0.40800
H2348       H  0.35603419  0.96712627  0.94831866     0.35700
C2349       C  0.51225639  0.65226441  0.75874395    -0.26100
C2350       C  0.51480750  0.68361172  0.74394056    -0.14100
C2351       C  0.54149687  0.69144478  0.72318972     0.36500
C2352       C  0.56747774  0.67044033  0.72359642    -0.25500
C2353       C  0.56636978  0.64115411  0.74305602    -0.14800
C2354       C  0.53794719  0.63097128  0.75856098     0.37600
N2355       N  0.53583926  0.60000467  0.77650545    -0.89000
H2356       H  0.49182703  0.64583897  0.77456692     0.18700
H2357       H  0.58871778  0.67742144  0.70967218     0.18700
N2358       N  0.54320420  0.72222470  0.70485526    -0.88000
H2359       H  0.51799452  0.58680814  0.76412256     0.36100
H2360       H  0.52954928  0.60411416  0.80370764     0.41200
H2361       H  0.54770111  0.71761778  0.67727845     0.40800
H2362       H  0.56213947  0.73503510  0.71539008     0.35700
C2363       C  0.37072188  0.76523016  0.80120750    -0.26100
C2364       C  0.35823239  0.74574123  0.82904524    -0.14100
C2365       C  0.37438775  0.71693338  0.83920450     0.36500
C2366       C  0.40428411  0.71056612  0.82488387    -0.25500
C2367       C  0.41841880  0.73286336  0.80111588    -0.14800
C2368       C  0.40084530  0.75948270  0.78792555     0.37600
N2369       N  0.41403481  0.78225555  0.76288647    -0.89000
H2370       H  0.35875337  0.78756464  0.79334234     0.18700
H2371       H  0.41754750  0.68978118  0.83483640     0.18700
N2372       N  0.36222454  0.69547017  0.86643489    -0.88000
H2373       H  0.42237103  0.76888344  0.74056928     0.36100
H2374       H  0.43305996  0.79343844  0.77532128     0.41200
H2375       H  0.34038489  0.68751867  0.85769317     0.40800
H2376       H  0.35916341  0.70855455  0.89068900     0.35700
C2377       C  0.42995644  0.01518542  0.76731503    -0.26100
C2378       C  0.42588093  0.02345099  0.80412884    -0.14100
C2379       C  0.39664690  0.03651226  0.81562627     0.36500
C2380       C  0.37081444  0.03416637  0.79248408    -0.25500
C2381       C  0.37421163  0.02166222  0.75719630    -0.14800
C2382       C  0.40442421  0.01465352  0.74346662     0.37600
N2383       N  0.40864933  0.00396809  0.70637386    -0.89000
H2384       H  0.45231040  0.00581448  0.75798784     0.18700
H2385       H  0.34790451  0.04124610  0.80243557     0.18700
N2386       N  0.39307573  0.52279398  0.87496604    -0.88000
H2387       H  0.43196680  0.99763940  0.70142095     0.36100
H2388       H  0.40375160  0.02387610  0.68945642     0.41200
H2389       H  0.41338564  0.05225195  0.86514821     0.40800
H2390       H  0.37753219  0.03552147  0.86615609     0.35700
C2391       C  0.52696423  0.52563741  0.63160018    -0.26100
C2392       C  0.53330353  0.51963174  0.59470380    -0.14100
C2393       C  0.56421156  0.51050078  0.58440823     0.36500
C2394       C  0.58861852  0.51445646  0.60936966    -0.25500
C2395       C  0.58254186  0.52426676  0.64524715    -0.14800
C2396       C  0.55108948  0.52765305  0.65697150     0.37600
N2397       N  0.54290131  0.53595130  0.69373623    -0.89000
H2398       H  0.50355456  0.53218642  0.64030479     0.18700
H2399       H  0.61247197  0.51031143  0.60052308     0.18700
N2400       N  0.57174293  0.49928983  0.54822487    -0.88000
H2401       H  0.55338887  0.55800512  0.70037749     0.36100
H2402       H  0.55106654  0.51761140  0.71114605     0.41200
H2403       H  0.58233502  0.47631654  0.55072848     0.40800
H2404       H  0.55144306  0.49539660  0.53320202     0.35700
C2405       C  0.37807135  0.51666680  0.56538202    -0.26100
C2406       C  0.36471373  0.54086142  0.58784278    -0.14100
C2407       C  0.37993282  0.57102282  0.59155943     0.36500
C2408       C  0.40960351  0.57518040  0.57533977    -0.25500
C2409       C  0.42433759  0.54935040  0.55646557    -0.14800
C2410       C  0.40786552  0.52041577  0.55034435     0.37600
N2411       N  0.42229689  0.49387729  0.53098980    -0.89000
H2412       H  0.36681433  0.49318149  0.56290050     0.18700
H2413       H  0.42238128  0.59745031  0.58016120     0.18700
N2414       N  0.36666666  0.59593103  0.61459851    -0.88000
H2415       H  0.40797663  0.48785548  0.50900604     0.36100
H2416       H  0.42334911  0.47374012  0.54845934     0.41200
H2417       H  0.34566235  0.60350350  0.60274644     0.40800
H2418       H  0.38108862  0.61635343  0.61519502     0.35700
C2419       C  0.58104016  0.77119859  0.85667024    -0.26100
C2420       C  0.57528584  0.76029624  0.89220236    -0.14100
C2421       C  0.54417632  0.75332351  0.90269986     0.36500
C2422       C  0.52036354  0.75433534  0.87685284    -0.25500
C2423       C  0.52650183  0.76238257  0.84043170    -0.14800
C2424       C  0.55681116  0.77357413  0.83103915     0.37600
N2425       N  0.56400044  0.78607038  0.79537351    -0.89000
H2426       H  0.60452793  0.77769287  0.84868298     0.18700
H2427       H  0.49751616  0.74568604  0.88474758     0.18700
N2428       N  0.53632741  0.74234190  0.93860666    -0.88000
H2429       H  0.54373308  0.78891989  0.77991569     0.36100
H2430       H  0.57264071  0.80964615  0.79878483     0.41200
H2431       H  0.54179444  0.76054065  0.95742442     0.40800
H2432       H  0.54934673  0.72128628  0.94420801     0.35700
C2433       C  0.57231276  0.61339963  0.47839702    -0.26100
C2434       C  0.56752270  0.64468193  0.49264062    -0.14100
C2435       C  0.53730333  0.65435817  0.50420868     0.36500
C2436       C  0.51366204  0.63095136  0.50628003    -0.25500
C2437       C  0.51987957  0.59833102  0.49712023    -0.14800
C2438       C  0.54850521  0.59034870  0.47944196     0.37600
N2439       N  0.55491346  0.55823329  0.46526901    -0.89000
H2440       H  0.59491314  0.60656218  0.46730882     0.18700
H2441       H  0.49171809  0.63736363  0.51928946     0.18700
N2442       N  0.53131383  0.68728821  0.51614899    -0.88000
H2443       H  0.57261422  0.54764554  0.48099817     0.36100
H2444       H  0.53534758  0.54335817  0.46745184     0.41200
H2445       H  0.54441128  0.69124668  0.53972946     0.40800
H2446       H  0.50788680  0.69039008  0.52348753     0.35700
C2447       C  0.39474740  0.76158296  0.57572102    -0.26100
C2448       C  0.42333768  0.77424162  0.56306314    -0.14100
C2449       C  0.42591195  0.78394037  0.52625053     0.36500
C2450       C  0.40706669  0.79460440  0.00296025    -0.25500
C2451       C  0.37833978  0.78257801  0.01517848    -0.14800
C2452       C  0.36770017  0.76343193  0.55423616     0.37600
N2453       N  0.33789717  0.75413350  0.56866608    -0.89000
H2454       H  0.39280699  0.75385084  0.60389382     0.18700
H2455       H  0.40889710  0.80522402  0.97596476     0.18700
N2456       N  0.45458865  0.79693612  0.51224654    -0.88000
H2457       H  0.34022326  0.74581557  0.59548012     0.36100
H2458       H  0.34221222  0.73499651  0.04518703     0.41200
H2459       H  0.45824436  0.81938484  0.52503986     0.40800
H2460       H  0.46892467  0.80104310  0.99164922     0.35700
C2461       C  0.38186145  0.86898971  0.68001190    -0.26100
C2462       C  0.38582225  0.89999804  0.66516561    -0.14100
C2463       C  0.41533199  0.90922405  0.65155806     0.36500
C2464       C  0.43926395  0.88568076  0.64909445    -0.25500
C2465       C  0.43387745  0.85330207  0.65947898    -0.14800
C2466       C  0.40568441  0.84565175  0.67786060     0.37600
N2467       N  0.39962119  0.81357718  0.69174591    -0.89000
H2468       H  0.35967720  0.86243743  0.69208041     0.18700
H2469       H  0.46070547  0.89169943  0.63501637     0.18700
N2470       N  0.42018405  0.94169909  0.63793297    -0.88000
H2471       H  0.38141632  0.80358434  0.67659724     0.36100
H2472       H  0.41904363  0.79833500  0.68829298     0.41200
H2473       H  0.40596755  0.94486333  0.61505465     0.40800
H2474       H  0.44318913  0.94445504  0.62899324     0.35700
C2475       C  0.55141293  0.78647310  0.62086616    -0.26100
C2476       C  0.53070338  0.80640410  0.60134486    -0.14100
C2477       C  0.54158464  0.82399672  0.57103941     0.36500
C2478       C  0.57238241  0.81943276  0.55889780    -0.25500
C2479       C  0.59210959  0.79655526  0.57581038    -0.14800
C2480       C  0.58204394  0.78125054  0.60840177     0.37600
N2481       N  0.60133289  0.75796380  0.62739654    -0.89000
H2482       H  0.54308345  0.77305202  0.64433531     0.18700
H2483       H  0.57947523  0.83060616  0.53343611     0.18700
N2484       N  0.52065733  0.84461950  0.55094970    -0.88000
H2485       H  0.60427270  0.76658877  0.65399965     0.36100
H2486       H  0.62366023  0.75678628  0.61595608     0.41200
H2487       H  0.53004561  0.86805756  0.55025905     0.40800
H2488       H  0.51962308  0.83590143  0.52416996     0.35700
C2489       C  0.04249006  0.53081035  0.79596460    -0.26100
C2490       C  0.02885465  0.50051931  0.80274609    -0.14100
C2491       C  0.04431502  0.96833345  0.83053018     0.36500
C2492       C  0.07458499  0.97355438  0.84424427    -0.25500
C2493       C  0.08838285  0.51474267  0.83090185    -0.14800
C2494       C  0.07219308  0.53807762  0.80955341     0.37600
N2495       N  0.08494025  0.57013026  0.80469021    -0.89000
H2496       H  0.02899909  0.54957813  0.78218815     0.18700
H2497       H  0.08372989  0.95728123  0.86499040     0.18700
N2498       N  0.02679869  0.94081181  0.84268043    -0.88000
H2499       H  0.06971701  0.58495047  0.78966193     0.36100
H2500       H  0.10535109  0.56757777  0.78924805     0.41200
H2501       H  0.02516659  0.94188033  0.87111410     0.40800
H2502       H  0.03931226  0.91967184  0.83573120     0.35700
C2503       C  0.93788049  0.90956296  0.76528402    -0.26100
C2504       C  0.93258341  0.94184814  0.75424004    -0.14100
C2505       C  0.90454003  0.94970197  0.73577127     0.36500
C2506       C  0.88065013  0.92670561  0.73370475    -0.25500
C2507       C  0.88470077  0.89553695  0.74850626    -0.14800
C2508       C  0.91429942  0.88632510  0.76255478     0.37600
N2509       N  0.92031967  0.85438678  0.77694632    -0.89000
H2510       H  0.95914377  0.90317770  0.77964295     0.18700
H2511       H  0.85853898  0.93357368  0.72150592     0.18700
N2512       N  0.89924214  0.98203751  0.72212149    -0.88000
H2513       H  0.91826513  0.83735452  0.75592280     0.36100
H2514       H  0.90370169  0.84938609  0.79705023     0.41200
H2515       H  0.87981613  0.99193672  0.73562654     0.40800
H2516       H  0.89349051  0.98015050  0.69454694     0.35700
C2517       C  0.01218055  0.65608032  0.89916530    -0.26100
C2518       C  0.01147970  0.68750711  0.91425172    -0.14100
C2519       C  0.03581108  0.69711037  0.93790718     0.36500
C2520       C  0.06263595  0.67760616  0.94076844    -0.25500
C2521       C  0.06494245  0.64834268  0.92125196    -0.14800
C2522       C  0.03884643  0.63632117  0.90237942     0.37600
N2523       N  0.04043980  0.60512404  0.88436236    -0.89000
H2524       H  0.99357194  0.64856240  0.88114318     0.18700
H2525       H  0.08201201  0.68574556  0.95726430     0.18700
N2526       N  0.03446508  0.72740327  0.95745589    -0.88000
H2527       H  0.01978835  0.60059777  0.87020241     0.36100
H2528       H  0.04209297  0.58716265  0.90450758     0.41200
H2529       H  0.01429723  0.72746907  0.97354339     0.40800
H2530       H  0.03277303  0.74673199  0.93901725     0.35700
C2531       C  0.86287745  0.74415903  0.85610047    -0.26100
C2532       C  0.85594319  0.73693750  0.81958207    -0.14100
C2533       C  0.87854976  0.72036254  0.79806994     0.36500
C2534       C  0.90871464  0.71578886  0.81178777    -0.25500
C2535       C  0.91666521  0.72665265  0.84677441    -0.14800
C2536       C  0.89311998  0.73895700  0.87002782     0.37600
N2537       N  0.90061241  0.74850793  0.90663379    -0.89000
H2538       H  0.84577070  0.75725404  0.87245241     0.18700
H2539       H  0.92663615  0.70561914  0.79409156     0.18700
N2540       N  0.87271170  0.71125764  0.76081904    -0.88000
H2541       H  0.88075555  0.75747007  0.92004244     0.36100
H2542       H  0.91633355  0.76776442  0.90494295     0.41200
H2543       H  0.84938657  0.71529126  0.75390388     0.40800
H2544       H  0.87633135  0.68605489  0.75874921     0.35700
C2545       C  0.05359615  0.77408173  0.82663013    -0.26100
C2546       C  0.02527998  0.76105519  0.81366648    -0.14100
C2547       C  0.02316053  0.75242720  0.77648184     0.36500
C2548       C  0.04955073  0.75462194  0.75414381    -0.25500
C2549       C  0.07856821  0.76346607  0.76850953    -0.14800
C2550       C  0.08058945  0.77418143  0.80474921     0.37600
N2551       N  0.11010565  0.78393236  0.81944331    -0.89000
H2552       H  0.05534067  0.78145077  0.85493805     0.18700
H2553       H  0.04791570  0.74656257  0.72603144     0.18700
N2554       N  0.99523799  0.73870506  0.76187066    -0.88000
H2555       H  0.10767328  0.79072280  0.84680580     0.36100
H2556       H  0.11715451  0.80474651  0.80529668     0.41200
H2557       H  0.00051783  0.71535237  0.75195869     0.40800
H2558       H  0.98803403  0.75313028  0.73988709     0.35700
C2559       C  0.92848323  0.78081626  0.63331240    -0.26100
C2560       C  0.92340696  0.77116265  0.59715946    -0.14100
C2561       C  0.89355270  0.75960229  0.58724880     0.36500
C2562       C  0.86837939  0.76319433  0.61175744    -0.25500
C2563       C  0.87297892  0.77638721  0.64653862    -0.14800
C2564       C  0.90366064  0.78336402  0.65820896     0.37600
N2565       N  0.90913936  0.79592911  0.69425554    -0.89000
H2566       H  0.95123436  0.78961507  0.64123031     0.18700
H2567       H  0.84504278  0.75667219  0.60336324     0.18700
N2568       N  0.88860317  0.74661277  0.55132082    -0.88000
H2569       H  0.93250198  0.80244019  0.69738537     0.36100
H2570       H  0.90531450  0.77695892  0.71271752     0.41200
H2571       H  0.90216875  0.72537771  0.54894398     0.40800
H2572       H  0.86537168  0.73965239  0.54811520     0.35700
C2573       C  0.07351601  0.82283661  0.60003916    -0.26100
C2574       C  0.09253663  0.79811851  0.58511744    -0.14100
C2575       C  0.08164737  0.78035312  0.55459518     0.36500
C2576       C  0.05070120  0.78448999  0.54315527    -0.25500
C2577       C  0.03064671  0.80640291  0.56103354    -0.14800
C2578       C  0.04247711  0.82707250  0.58833779     0.37600
N2579       N  0.02217195  0.85029181  0.60608415    -0.89000
H2580       H  0.08154920  0.83605842  0.62379412     0.18700
H2581       H  0.04171800  0.76904929  0.52168159     0.18700
N2582       N  0.10046188  0.75562641  0.53710423    -0.88000
H2583       H  0.03420462  0.86293326  0.62635150     0.36100
H2584       H  0.01547822  0.86760284  0.58662240     0.41200
H2585       H  0.12312160  0.75547057  0.54752914     0.40800
H2586       H  0.10258300  0.76205785  0.50962736     0.35700
C2587       C  0.89941361  0.01707015  0.90746927    -0.26100
C2588       C  0.86922940  0.02072024  0.89310159    -0.14100
C2589       C  0.86563811  0.03127870  0.85689138     0.36500
C2590       C  0.89239596  0.03476141  0.83488842    -0.25500
C2591       C  0.92221919  0.02490166  0.84745066    -0.14800
C2592       C  0.92579311  0.01842073  0.88512835     0.37600
N2593       N  0.95531931  0.01048496  0.90118222    -0.89000
H2594       H  0.90246169  0.01012161  0.93578023     0.18700
H2595       H  0.88948286  0.04088787  0.80633627     0.18700
N2596       N  0.83508596  0.03780014  0.84242521    -0.88000
H2597       H  0.97017040  0.03033454  0.89796165     0.36100
H2598       H  0.96480288  0.98990357  0.88829159     0.41200
H2599       H  0.82327994  0.01565017  0.84099398     0.40800
H2600       H  0.83670398  0.04641721  0.81566029     0.35700
C2601       C  0.88782166  0.87137384  0.47510719    -0.26100
C2602       C  0.88007106  0.89462529  0.50165522    -0.14100
C2603       C  0.90062818  0.90085234  0.53064585     0.36500
C2604       C  0.92733541  0.88127741  0.53457593    -0.25500
C2605       C  0.93342751  0.85562889  0.51018658    -0.14800
C2606       C  0.91421410  0.85154672  0.47940803     0.37600
N2607       N  0.92023050  0.82626174  0.45336222    -0.89000
H2608       H  0.87264611  0.86771795  0.45188955     0.18700
H2609       H  0.94183625  0.88402765  0.55854857     0.18700
N2610       N  0.89374679  0.92636168  0.55648065    -0.88000
H2611       H  0.91952487  0.80378084  0.46674787     0.36100
H2612       H  0.94276511  0.82942078  0.44307384     0.41200
H2613       H  0.89505976  0.94855029  0.54254985     0.40800
H2614       H  0.91081324  0.92709336  0.57677213     0.35700
C2615       C  0.06078085  0.50995214  0.57441876    -0.26100
C2616       C  0.03246728  0.52590721  0.56571698    -0.14100
C2617       C  0.02965374  0.54169052  0.53156479     0.36500
C2618       C  0.04939964  0.54852041  0.00359747    -0.25500
C2619       C  0.07745911  0.53557043  0.01719030    -0.14800
C2620       C  0.08703885  0.51242361  0.55145902     0.37600
N2621       N  0.11630687  0.49757381  0.56135592    -0.89000
H2622       H  0.06315444  0.49815909  0.60072413     0.18700
H2623       H  0.04902634  0.56007894  0.97700203     0.18700
N2624       N  0.00204045  0.55928150  0.52110295    -0.88000
H2625       H  0.11415407  0.48503469  0.58603386     0.36100
H2626       H  0.12214400  0.52360060  0.06884222     0.41200
H2627       H  0.99710864  0.57718614  0.54068452     0.40800
H2628       H  0.97704738  0.55172560  0.01007836     0.35700
C2629       C  0.01516886  0.63200266  0.65482332    -0.26100
C2630       C  0.02130875  0.59991760  0.66617103    -0.14100
C2631       C  0.04981961  0.59287158  0.68427589     0.36500
C2632       C  0.07346199  0.61619106  0.68440334    -0.25500
C2633       C  0.06855427  0.64698737  0.66895912    -0.14800
C2634       C  0.03859908  0.65571060  0.65599931     0.37600
N2635       N  0.03272694  0.68791920  0.64186439    -0.89000
H2636       H  0.99342020  0.63759505  0.64107416     0.18700
H2637       H  0.09596646  0.61001872  0.69606000     0.18700
N2638       N  0.05644803  0.56120705  0.69940994    -0.88000
H2639       H  0.00952872  0.69035163  0.63345322     0.36100
H2640       H  0.04654640  0.69081422  0.61858017     0.41200
H2641       H  0.03649362  0.54678277  0.69922717     0.40800
H2642       H  0.06201687  0.56453754  0.72687058     0.35700
C2643       C  0.88007130  0.51321383  0.60309251    -0.26100
C2644       C  0.86497869  0.53788169  0.58291559    -0.14100
C2645       C  0.87840391  0.56916240  0.58147173     0.36500
C2646       C  0.90812522  0.57406239  0.59712792    -0.25500
C2647       C  0.92491542  0.54785997  0.61255125    -0.14800
C2648       C  0.91027684  0.51752631  0.61677028     0.37600
N2649       N  0.92745410  0.49034055  0.63161212    -0.89000
H2650       H  0.86997345  0.48906081  0.60387417     0.18700
H2651       H  0.91949296  0.59739157  0.59395547     0.18700
N2652       N  0.86311933  0.59496336  0.56167203    -0.88000
H2653       H  0.91331824  0.46976317  0.63357783     0.36100
H2654       H  0.93420168  0.49656329  0.65803747     0.41200
H2655       H  0.86279886  0.58836696  0.53412147     0.40800
H2656       H  0.87600552  0.61643866  0.56336533     0.35700
loop_ 
_geom_bond_atom_site_label_1 
_geom_bond_atom_site_label_2 
_geom_bond_distance 
_geom_bond_site_symmetry_2 
_ccdc_geom_bond_type 
C1            C2   1.407       .  A
C1            C6   1.413       .  A
C1          C655   1.483       .  S
C2            C3   1.403   1_655  A
C2            H7   1.083       .  S
C3            C4   1.393       .  A
C3          C638   1.468       .  S
C4            C5   1.391       .  A
C4            H8   1.086       .  S
C5            C6   1.404   1_455  A
C5          C624   1.484       .  S
C6            H9   1.083       .  S
O10          C26   1.287       .  A
O10         Zn16   2.074       .  S
C11         C697   1.509       .  S
C11          O27   1.282       .  A
C11         O688   1.287       .  A
O12          C25   1.263       .  A
O12         Cd19   2.002       .  S
O13          C31   1.281       .  A
O13         Cd22   2.129       .  S
O14          C28   1.295       .  A
O14         Cd18   2.173   1_556  S
O15          C26   1.291       .  A
O15       Cd1346   2.133       .  S
Zn16         O27   2.065   1_554  S
Zn16         O29   2.072       .  S
Zn16         O21   1.928   1_554  S
O17         C692   1.285       .  A
O17       Cd1350   2.092   1_545  S
Cd18         O20   2.154       .  S
Cd18       O1343   2.136   1_545  S
Cd18       O1349   1.996   1_544  S
Cd19       O1351   1.998   1_556  S
Cd19        O696   2.013       .  S
Cd19         O21   1.937       .  S
O20          C30   1.283       .  A
O21       Cd1346   2.004   1_556  S
O21        Cd686   1.982       .  S
Cd22         O24   2.132       .  S
Cd22       O1345   2.083       .  S
Cd22        O685   1.980       .  S
O23          C30   1.263   1_565  A
O23       Cd1347   1.987   1_554  S
O24         C675   1.287       .  A
C25         C610   1.468       .  S
C25          O29   1.281   1_556  A
C26         C119   1.511       .  S
C28         C865   1.513       .  S
C28         O681   1.283       .  A
C30         C652   1.479       .  S
C31         C596   1.472       .  S
C31          O32   1.264       .  A
O32        Cd683   2.010       .  S
C33          C34   1.420       .  A
C33          C38   1.414       .  A
C33         C675   1.507       .  S
C34          C35   1.418       .  A
C34         H703   1.083       .  S
C35          C36   1.417       .  A
C35         C856   1.512       .  S
C36          C37   1.412       .  A
C36          H40   1.083       .  S
C37          C38   1.413       .  A
C37          C93   1.508       .  S
C38          H41   1.083       .  S
H39         C698   1.083       .  S
C42          C43   1.407   1_455  A
C42          C47   1.410   1_455  A
C42         C585   1.481       .  S
C43          C44   1.408       .  A
C43          H48   1.083   1_655  S
C44          C45   1.398       .  A
C44         C613   1.480   1_554  S
C45          C46   1.391       .  A
C45          H49   1.084       .  S
C46          C47   1.405       .  A
C46         C568   1.483       .  S
C47          H50   1.084       .  S
O51          C67   1.281       .  A
O51         Zn57   2.044       .  S
C52          C74   1.504       .  S
C52          O68   1.279       .  A
C52          O65   1.287       .  A
O53          C66   1.264       .  A
O53         Cd60   2.006       .  S
O54          C72   1.281       .  A
O54         Cd63   2.123       .  S
O55          C69   1.294       .  A
O55         Cd59   2.169       .  S
O56          C67   1.290       .  A
O56         Cd59   2.135       .  S
Zn57         O68   2.046       .  S
Zn57         O70   2.048       .  S
Zn57         O62   1.931       .  S
O58          C69   1.282       .  A
O58         Cd63   2.088       .  S
Cd59         O61   2.142       .  S
Cd59         O62   2.004       .  S
Cd60         O64   1.997       .  S
Cd60         O73   2.013       .  S
Cd60         O62   1.942       .  S
O61          C71   1.281       .  A
O62         Cd63   1.985       .  S
Cd63         O65   2.132       .  S
O64          C71   1.263       .  A
C66         C641   1.458       .  S
C66          O70   1.277       .  A
C67         C158   1.507       .  S
C69         C240   1.513       .  S
C71         C582   1.473       .  S
C72         C557   1.472       .  S
C72          O73   1.265       .  A
C74          C75   1.421       .  A
C74          C79   1.413       .  A
C75          C76   1.416       .  A
C75          H80   1.083       .  S
C76          C77   1.418       .  A
C76         C233   1.512       .  S
C77          C78   1.411       .  A
C77          H81   1.083       .  S
C78          C79   1.411       .  A
C78         C134   1.507       .  S
C79          H82   1.083       .  S
C83          C84   1.411       .  A
C83          C88   1.409       .  A
C83         C543   1.484       .  S
C84          C85   1.406   1_655  A
C84          H89   1.084       .  S
C85          C86   1.393       .  A
C85         C554   1.489       .  S
C86          C87   1.396       .  A
C86          H90   1.084       .  S
C87          C88   1.408   1_455  A
C87         C526   1.481       .  S
C88          H91   1.083       .  S
O92         C108   1.281       .  A
O92         Zn98   2.068       .  S
C93         O109   1.285       .  A
C93         O106   1.287       .  A
O94         C107   1.262       .  A
O94        Cd101   1.999       .  S
O95         C113   1.280       .  A
O95        Cd104   2.144       .  S
O96         C110   1.284       .  A
O96        Cd100   2.090       .  S
O97         C108   1.286       .  A
O97        Cd100   2.126       .  S
Zn98        O109   2.069       .  S
Zn98        O111   2.066       .  S
Zn98        O103   1.936       .  S
O99         C110   1.292       .  A
O99        Cd104   2.156       .  S
Cd100       O102   2.129       .  S
Cd100       O103   1.988       .  S
Cd101       O105   2.016       .  S
Cd101       O114   1.984       .  S
Cd101       O103   1.951       .  S
O102        C112   1.280       .  A
O103       Cd104   2.007       .  S
Cd104       O106   2.120       .  S
O105        C112   1.262       .  A
C107        C515   1.464       .  S
C107        O111   1.281       .  A
C108        C115   1.507       .  S
C110        C322   1.509       .  S
C112        C571   1.473       .  S
C113        C540   1.473       .  S
C113        O114   1.260       .  A
C115        C116   1.420       .  A
C115        C120   1.416       .  A
C116        C117   1.417       .  A
C116        H121   1.083       .  S
C117        C118   1.418       .  A
C117       C1643   1.512       .  S
C118        C119   1.410       .  A
C118        H122   1.083       .  S
C119        C120   1.414       .  A
C120        H123   1.083       .  S
C124        C129   1.409   1_455  A
C124       C1453   1.414   1_455  A
C124       C1826   1.479       .  S
C125       C1452   1.414   1_545  A
C125       C1454   1.407       .  A
C125        H130   1.082       .  S
C126        C127   1.390       .  A
C126       C1453   1.406       .  A
C126        C599   1.488       .  S
C127        C128   1.393       .  A
C127        H131   1.086       .  S
C128        C129   1.404       .  A
C128        C512   1.472       .  S
C129        H132   1.083   1_655  S
O133        C149   1.282       .  A
O133       Zn139   2.069       .  S
C134        O150   1.287       .  A
C134        O147   1.290       .  A
O135        C148   1.265       .  A
O135       Cd142   2.009       .  S
O136        C154   1.282       .  A
O136       Cd145   2.156       .  S
O137        C151   1.282       .  A
O137       Cd141   2.075       .  S
O138        C149   1.285       .  A
O138       Cd141   2.120       .  S
Zn139       O150   2.072       .  S
Zn139       O152   2.079       .  S
Zn139       O144   1.920       .  S
O140        C151   1.294       .  A
O140       Cd145   2.170       .  S
Cd141       O143   2.112       .  S
Cd141       O144   1.978       .  S
Cd142       O146   2.006       .  S
Cd142       O155   1.987       .  S
Cd142       O144   1.931       .  S
O143        C153   1.279       .  A
O144       Cd145   2.003       .  S
Cd145       O147   2.123       .  S
O146        C153   1.262       .  A
C148        C529   1.470       .  S
C148        O152   1.283       .  A
C149        C156   1.505       .  S
C151       C1611   1.511   1_545  S
C153        C627   1.462       .  S
C154        C501   1.476       .  S
C154        O155   1.262       .  A
C156        C157   1.414       .  A
C156        C161   1.419       .  A
C157        C822   1.412       .  A
C157        H162   1.083       .  S
C158        C821   1.416       .  A
C158        C823   1.406       .  A
C159        C160   1.420       .  A
C159        C822   1.415       .  A
C159        H163   1.083       .  S
C160        C161   1.418       .  A
C160        C274   1.514       .  S
C161        H164   1.083       .  S
C165        C166   1.415       .  A
C165        C170   1.408       .  A
C165        C484   1.477       .  S
C166        C167   1.406       .  A
C166        H171   1.084       .  S
C167        C168   1.391       .  A
C167        C456   1.483       .  S
C168        C169   1.390       .  A
C168        H172   1.086       .  S
C169        C170   1.400       .  A
C169        C473   1.469       .  S
C170        H173   1.083       .  S
O174        C190   1.280       .  A
O174       Zn180   2.027   1_556  S
C175        C324   1.507       .  S
C175        O191   1.286       .  A
C175        O188   1.290       .  A
O176        C189   1.260   1_556  A
O176       Cd183   1.995   1_556  S
O177        C195   1.278       .  A
O177       Cd186   2.129       .  S
O178        C856   1.285       .  A
O178       Cd182   2.105       .  S
O179        C854   1.289       .  A
O179       Cd182   2.148       .  S
Zn180       O191   2.064       .  S
Zn180       O193   2.083       .  S
Zn180       O185   1.919   1_554  S
O181        C192   1.290       .  A
O181       Cd186   2.146   1_556  S
Cd182       O184   2.128       .  S
Cd182       O849   1.984       .  S
Cd183       O196   2.011       .  S
Cd183       O851   2.023   1_554  S
Cd183       O185   1.927   1_554  S
O184        C194   1.283       .  A
O185       Cd186   1.994   1_556  S
O185       Cd846   1.961       .  S
Cd186       O188   2.130       .  S
O187        C194   1.265       .  A
O187       Cd847   2.016       .  S
C189        C442   1.475   1_554  S
C189        O193   1.280       .  A
C190        C861   1.505       .  S
C190        O843   1.292       .  A
C192        C699   1.512       .  S
C192        O842   1.284       .  A
C194        C428   1.478       .  S
C195        C487   1.467       .  S
C195        O196   1.261       .  A
C197        C198   1.416       .  A
C197        C202   1.423       .  A
C197        C854   1.511       .  S
C198        C199   1.416       .  A
C198        H203   1.083       .  S
C199        C200   1.413       .  A
C199        C313   1.515       .  S
C200        C201   1.421       .  A
C200        H204   1.083       .  S
C201        C202   1.418       .  A
C201        C692   1.518       .  S
C202        H869   1.083       .  S
H205        C866   1.083       .  S
C206        C207   1.411       .  A
C206        C211   1.411       .  A
C206        C417   1.483       .  S
C207        C208   1.402       .  A
C207        H212   1.084       .  S
C208        C209   1.389       .  A
C208        C400   1.475       .  S
C209        C210   1.397       .  A
C209        H213   1.085       .  S
C210        C211   1.413       .  A
C210        C445   1.486   1_554  S
C211        H214   1.083   1_554  S
O215        C231   1.282       .  A
O215       Zn221   2.052       .  S
C216        C281   1.507       .  S
C216        O232   1.284       .  A
C216        O229   1.290       .  A
O217        C230   1.262       .  A
O217       Cd224   1.998       .  S
O218        C236   1.281       .  A
O218       Cd227   2.146       .  S
O219        C233   1.284       .  A
O219      Cd1551   2.086   1_545  S
O220        C231   1.289       .  A
O220       Cd223   2.138       .  S
Zn221       O232   2.056       .  S
Zn221       O234   2.065       .  S
Zn221       O226   1.908       .  S
O222        C233   1.294       .  A
O222       Cd227   2.168       .  S
Cd223       O225   2.131       .  S
Cd223      O1547   2.080       .  S
Cd223       O226   1.966       .  S
Cd224       O228   2.005       .  S
Cd224      O1565   1.985       .  S
Cd224       O226   1.905       .  S
O225        C235   1.282       .  A
O226      Cd1555   1.994       .  S
Cd227      O1557   2.131   1_545  S
Cd227      O1554   2.007   1_545  S
O228        C235   1.263       .  A
O229      Cd1555   2.130       .  S
C230        C470   1.459       .  S
C230        O234   1.280       .  A
C231        C238   1.505       .  S
C235        C389   1.471       .  S
C236        C414   1.477       .  S
C236        O237   1.264       .  A
O237      Cd1552   2.007   1_545  S
C238        C239   1.419       .  A
C238        C243   1.414       .  A
C239        C240   1.415       .  A
C239        H244   1.083       .  S
C240        C241   1.420       .  A
C241        C242   1.413       .  A
C241        H245   1.083       .  S
C242        C243   1.414       .  A
C242        C272   1.511       .  S
C243        H246   1.083       .  S
C247        C248   1.404       .  A
C247        C252   1.411       .  A
C247        C375   1.478       .  S
C248        C249   1.404       .  A
C248        H253   1.084       .  S
C249        C250   1.396       .  A
C249        C358   1.473       .  S
C250        C251   1.394       .  A
C250        H254   1.084       .  S
C251        C252   1.407       .  A
C251        C431   1.491       .  S
C252        H255   1.084       .  S
O256        C272   1.286       .  A
O256       Zn262   2.071       .  S
C257        C279   1.508       .  S
C257        O273   1.281       .  A
C257        O270   1.289       .  A
O258        C271   1.263       .  A
O258       Cd265   2.005       .  S
O259        C277   1.282       .  A
O259       Cd268   2.121       .  S
O260        C274   1.292       .  A
O260       Cd264   2.159       .  S
O261        C272   1.290       .  A
O261       Cd264   2.134       .  S
Zn262       O273   2.044       .  S
Zn262       O275   2.063       .  S
Zn262       O267   1.921       .  S
O263        C274   1.285       .  A
O263       Cd268   2.101       .  S
Cd264       O266   2.141       .  S
Cd264       O267   1.999       .  S
Cd265       O269   2.001       .  S
Cd265       O278   2.011       .  S
Cd265       O267   1.930       .  S
O266        C276   1.281       .  A
O267       Cd268   1.975       .  S
Cd268       O270   2.142       .  S
O269        C276   1.263       .  A
C271        C344   1.466       .  S
C271        O275   1.279       .  A
C276        C372   1.470       .  S
C277        C459   1.470       .  S
C277        O278   1.265       .  A
C279        C280   1.416       .  A
C279        C284   1.419       .  A
C280        C945   1.416       .  A
C280        H949   1.083       .  S
C281        C944   1.414       .  A
C281        C946   1.409       .  A
C282        C283   1.421       .  A
C282        C945   1.416       .  A
C282        H286   1.083       .  S
C283        C284   1.413       .  A
C283       C1479   1.515       .  S
C284        H287   1.083       .  S
H285        C944   1.083       .  S
C288        C289   1.406       .  A
C288       C1621   1.413       .  A
C288       C1658   1.481       .  S
C289        C290   1.404       .  A
C289        H294   1.083       .  S
C290        C291   1.394       .  A
C290        C347   1.475       .  S
C291        C292   1.392       .  A
C291        H295   1.085       .  S
C292       C1621   1.405       .  A
C292        C386   1.482       .  S
C293       C1616   1.413   1_545  A
C293       C1620   1.411       .  A
C293        H296   1.084       .  S
O297        C313   1.286       .  A
O297       Zn303   2.073       .  S
C298        C320   1.504       .  S
C298        O314   1.280       .  A
C298        O311   1.284       .  A
O299        C312   1.265       .  A
O299       Cd306   2.005       .  S
O300        C318   1.278       .  A
O300       Cd309   2.116       .  S
O301        C315   1.296   1_565  A
O301       Cd305   2.179   1_565  S
O302        C313   1.291       .  A
O302       Cd305   2.142       .  S
Zn303       O314   2.062       .  S
Zn303       O316   2.053       .  S
Zn303       O308   1.932       .  S
O304        C315   1.283       .  A
O304       Cd309   2.086       .  S
Cd305       O307   2.152       .  S
Cd305       O308   2.006       .  S
Cd306       O310   1.981       .  S
Cd306       O319   2.030       .  S
Cd306       O308   1.956       .  S
O307        C317   1.282       .  A
O308       Cd309   1.983       .  S
Cd309       O311   2.115       .  S
O310        C317   1.260       .  A
C312        C361   1.461       .  S
C312        O316   1.280       .  A
C315       C1445   1.514   1_545  S
C317        C333   1.472   1_545  S
C318        C403   1.476       .  S
C318        O319   1.263       .  A
C320        C321   1.418       .  A
C320        C325   1.414       .  A
C321        C322   1.417       .  A
C321        H326   1.083       .  S
C322        C323   1.417       .  A
C323        C324   1.409       .  A
C323        H327   1.083       .  S
C324        C325   1.412       .  A
C325        H328   1.083       .  S
C329        C334   1.413       .  A
C329       C1658   1.407       .  A
C329        H336   1.084       .  S
C330        C331   1.410   1_565  A
C330       C1657   1.402       .  A
C330       C1616   1.481       .  S
C331        C332   1.405       .  A
C331        N338   1.431       .  S
C332        C333   1.406   1_545  A
C332        H337   1.084       .  S
C333       C1662   1.411       .  A
C334       C1661   1.409       .  A
C334        N335   1.436       .  S
N335        H339   1.046       .  S
N335        H340   1.046       .  S
N338        H341   1.046       .  S
N338        H342   1.046       .  S
C343        C344   1.401       .  A
C343        C348   1.394       .  A
C343        H350   1.085       .  S
C344        C345   1.407       .  A
C345        C346   1.405       .  A
C345        N352   1.438       .  S
C346        C347   1.409       .  A
C346        H351   1.084       .  S
C347        C348   1.414       .  A
C348        N349   1.433       .  S
N349        H353   1.044       .  S
N349        H354   1.046       .  S
N352        H355   1.045       .  S
N352        H356   1.046       .  S
C357        C358   1.402       .  A
C357        C362   1.399       .  A
C357        H364   1.084       .  S
C358        C359   1.412       .  A
C359        C360   1.400       .  A
C359        N366   1.433       .  S
C360        C361   1.398       .  A
C360        H365   1.084       .  S
C361        C362   1.407       .  A
C362        N363   1.433       .  S
N363        H367   1.045       .  S
N363        H368   1.046       .  S
N366        H369   1.046       .  S
N366        H370   1.046       .  S
C371        C372   1.405       .  A
C371        C376   1.401       .  A
C371        H378   1.084       .  S
C372        C373   1.413       .  A
C373        C374   1.401       .  A
C373        N380   1.433       .  S
C374        C375   1.402       .  A
C374        H379   1.084       .  S
C375        C376   1.409       .  A
C376        N377   1.431       .  S
N377        H381   1.045       .  S
N377        H382   1.045       .  S
N380        H383   1.046       .  S
N380        H384   1.045       .  S
C385        C386   1.401       .  A
C385        C390   1.403       .  A
C385        H392   1.084       .  S
C386        C387   1.421       .  A
C387        C388   1.402       .  A
C387       N1722   1.437       .  S
C388        C389   1.398       .  A
C388        H393   1.084       .  S
C389        C390   1.414       .  A
C390        N391   1.439       .  S
N391        H395   1.046       .  S
N391        H396   1.045       .  S
N394       C1715   1.438       .  S
N394       H1725   1.044       .  S
N394       H1726   1.046       .  S
H397       N1722   1.045       .  S
H398       N1722   1.046       .  S
C399        C400   1.403       .  A
C399        C404   1.391       .  A
C399        H406   1.085       .  S
C400        C401   1.408       .  A
C401        C402   1.413       .  A
C401        N408   1.437   1_545  S
C402        C403   1.409       .  A
C402        H407   1.084   1_545  S
C403        C404   1.412       .  A
C404        N405   1.433       .  S
N405        H409   1.045       .  S
N405        H410   1.043       .  S
N408        H411   1.046       .  S
N408        H412   1.046       .  S
C413        C414   1.405       .  A
C413        C418   1.405       .  A
C413        H420   1.084       .  S
C414        C415   1.410       .  A
C415        C416   1.413       .  A
C415        N422   1.436       .  S
C416        C417   1.405       .  A
C416        H421   1.084       .  S
C417        C418   1.406       .  A
C418        N419   1.433       .  S
N419        H423   1.046   1_554  S
N419        H424   1.046   1_545  S
N422        H425   1.046       .  S
N422        H426   1.046       .  S
C427        C428   1.399       .  A
C427        C432   1.404       .  A
C427        H434   1.084       .  S
C428        C429   1.419       .  A
C429        C430   1.395       .  A
C429        N436   1.433       .  S
C430        C431   1.402       .  A
C430        H435   1.084       .  S
C431        C432   1.424       .  A
C432        N433   1.438       .  S
N433        H437   1.045       .  S
N433        H438   1.045       .  S
N436        H439   1.044       .  S
N436        H440   1.044       .  S
C441        C442   1.398       .  A
C441        C446   1.401       .  A
C441        H448   1.084       .  S
C442        C443   1.414   1_556  A
C443        C444   1.404       .  A
C443        N450   1.439       .  S
C444        C445   1.403   1_554  A
C444        H449   1.084       .  S
C445        C446   1.421       .  A
C446        N447   1.434       .  S
N447        H451   1.046       .  S
N447        H452   1.044       .  S
N450        H453   1.046       .  S
N450        H454   1.046       .  S
C455        C456   1.413       .  A
C455        C460   1.404       .  A
C455        H462   1.084       .  S
C456        C457   1.410       .  A
C457       C1122   1.403   1_554  A
C457        N464   1.439   1_554  S
C458        C459   1.405       .  A
C458       C1121   1.404       .  A
C458        H463   1.084       .  S
C459       C1124   1.402       .  A
C460       C1123   1.400       .  A
C460        N461   1.437       .  S
N461        H465   1.046       .  S
N461       H1130   1.046       .  S
N464        H467   1.046   1_556  S
N464       H1132   1.046       .  S
H466       N1125   1.046       .  S
H468       N1128   1.046       .  S
C469        C470   1.395       .  A
C469        C474   1.397       .  A
C469        H476   1.084       .  S
C470        C471   1.411       .  A
C471        C472   1.402       .  A
C471        N478   1.439       .  S
C472        C473   1.400       .  A
C472        H477   1.084       .  S
C473        C474   1.418       .  A
C474        N475   1.437       .  S
N475        H479   1.046       .  S
N475        H480   1.045       .  S
N478        H481   1.046       .  S
N478        H482   1.046       .  S
C483        C484   1.402       .  A
C483        C488   1.402       .  A
C483        H490   1.084       .  S
C484        C485   1.406       .  A
C485        C486   1.402       .  A
C485        N492   1.432       .  S
C486        C487   1.404       .  A
C486        H491   1.085       .  S
C487        C488   1.416       .  A
C488        N489   1.438       .  S
N489        H493   1.046       .  S
N489        H494   1.045       .  S
N492        H495   1.045       .  S
N492        H496   1.046       .  S
C497        C498   1.400   1_545  A
C497        C502   1.406       .  A
C497        H504   1.084       .  S
C498       C1827   1.413       .  A
C498       C1452   1.484   1_455  S
C499        C500   1.407       .  A
C499       C1826   1.408       .  A
C499        N506   1.432       .  S
C500       C1829   1.403       .  A
C500        H505   1.084       .  S
C501        C502   1.413       .  A
C501       C1828   1.404   1_545  A
C502        N503   1.438       .  S
N503        H507   1.045       .  S
N503        H508   1.046       .  S
N506        H509   1.046       .  S
N506        H510   1.045       .  S
C511        C512   1.401       .  A
C511        C516   1.398       .  A
C511        H518   1.084       .  S
C512        C513   1.412       .  A
C513        C514   1.400       .  A
C513        N520   1.432       .  S
C514        C515   1.397       .  A
C514        H519   1.084       .  S
C515        C516   1.416       .  A
C516        N517   1.434       .  S
N517        H521   1.045       .  S
N517        H522   1.046       .  S
N520        H523   1.046       .  S
N520        H524   1.045       .  S
C525        C526   1.403       .  A
C525        C530   1.405       .  A
C525        H532   1.084   1_455  S
C526        C527   1.419       .  A
C527        C528   1.399       .  A
C527        N534   1.437       .  S
C528        C529   1.398       .  A
C528        H533   1.084       .  S
C529        C530   1.413       .  A
C530        N531   1.439       .  S
N531        H535   1.046       .  S
N531        H536   1.045       .  S
N534        H537   1.045       .  S
N534        H538   1.046       .  S
C539        C540   1.405       .  A
C539        C544   1.407       .  A
C539        H546   1.085       .  S
C540        C541   1.415       .  A
C541        C542   1.407       .  A
C541        N548   1.437       .  S
C542        C543   1.404       .  A
C542        H547   1.084       .  S
C543        C544   1.408       .  A
C544        N545   1.437       .  S
N545        H549   1.046       .  S
N545        H550   1.045       .  S
N548        H551   1.045       .  S
N548        H552   1.045       .  S
C553        C554   1.413       .  A
C553        C558   1.408       .  A
C553        H560   1.084       .  S
C554        C555   1.414       .  A
C555        C556   1.401       .  A
C555        N562   1.439   1_455  S
C556        C557   1.403       .  A
C556        H561   1.084       .  S
C557        C558   1.403       .  A
C558        N559   1.437       .  S
N559        H563   1.046       .  S
N559        H564   1.046       .  S
N562        H565   1.046       .  S
N562        H566   1.046       .  S
C567        C568   1.399       .  A
C567        C572   1.399       .  A
C567        H574   1.084       .  S
C568        C569   1.416       .  A
C569        C570   1.410       .  A
C569        N576   1.437       .  S
C570        C571   1.399       .  A
C570        H575   1.083       .  S
C571        C572   1.413       .  A
C572        N573   1.436       .  S
N573        H577   1.046       .  S
N573        H578   1.045       .  S
N576        H579   1.045       .  S
N576        H580   1.046       .  S
C581        C582   1.404       .  A
C581        C586   1.408       .  A
C581        H588   1.084       .  S
C582        C583   1.418       .  A
C583        C584   1.405       .  A
C583        N590   1.438       .  S
C584        C585   1.401       .  A
C584        H589   1.084       .  S
C585        C586   1.409       .  A
C586        N587   1.438       .  S
N587        H591   1.046       .  S
N587        H592   1.046       .  S
N590        H593   1.045       .  S
N590        H594   1.046       .  S
C595        C596   1.404       .  A
C595        C600   1.396       .  A
C595        H602   1.084       .  S
C596        C597   1.403       .  A
C597        C598   1.408       .  A
C597        N604   1.437       .  S
C598        C599   1.415       .  A
C598        H603   1.084       .  S
C599        C600   1.415       .  A
C600        N601   1.433       .  S
N601        H605   1.044       .  S
N601        H606   1.045       .  S
N604        H607   1.045       .  S
N604        H608   1.046       .  S
C609        C610   1.398       .  A
C609        C614   1.399       .  A
C609        H616   1.084       .  S
C610        C611   1.412   1_556  A
C611        C612   1.404       .  A
C611        N618   1.439       .  S
C612        C613   1.403   1_554  A
C612        H617   1.084       .  S
C613        C614   1.419       .  A
C614        N615   1.437       .  S
N615        H619   1.046       .  S
N615        H620   1.045       .  S
N618        H621   1.045       .  S
N618        H622   1.046       .  S
C623        C624   1.412       .  A
C623        C628   1.409       .  A
C623        H630   1.084       .  S
C624        C625   1.415       .  A
C625       C1290   1.392       .  A
C625        N632   1.433       .  S
C626        C627   1.401       .  A
C626       C1289   1.392       .  A
C626        H631   1.085       .  S
C627       C1292   1.399       .  A
C628       C1291   1.405       .  A
C628        N629   1.437       .  S
N629        H633   1.046   1_545  S
N629       H1298   1.045       .  S
N632        H635   1.046   1_455  S
N632       H1300   1.043   1_455  S
H634       N1293   1.046       .  S
H636       N1296   1.044   1_655  S
C637        C638   1.402       .  A
C637        C642   1.402       .  A
C637        H644   1.084   1_455  S
C638        C639   1.417       .  A
C639        C640   1.398       .  A
C639        N646   1.438       .  S
C640        C641   1.397       .  A
C640        H645   1.084       .  S
C641        C642   1.408       .  A
C642        N643   1.439       .  S
N643        H647   1.046       .  S
N643        H648   1.046       .  S
N646        H649   1.045       .  S
N646        H650   1.045       .  S
C651        C652   1.407       .  A
C651        C656   1.401       .  A
C651        H658   1.084   1_545  S
C652        C653   1.411       .  A
C653        C654   1.413       .  A
C653        N660   1.437       .  S
C654        C655   1.407       .  A
C654        H659   1.084       .  S
C655        C656   1.406       .  A
C656        N657   1.438   1_545  S
N657        H661   1.046       .  S
N657        H662   1.044       .  S
N660        H663   1.045       .  S
N660        H664   1.046       .  S
C665        C666   1.413       .  A
C665        C670   1.412       .  A
C665       C1319   1.487       .  S
C666        C667   1.410   1_655  A
C666        H671   1.083       .  S
C667        C668   1.393       .  A
C667       C1302   1.477       .  S
C668        C669   1.388       .  A
C668        H672   1.086       .  S
C669        C670   1.402   1_455  A
C669       C1288   1.479       .  S
C670        H673   1.083       .  S
O674        C690   1.287       .  A
O674       Zn680   2.080       .  S
C675        O691   1.282       .  A
O676        C689   1.264       .  A
O676       Cd683   2.005       .  S
O677        C695   1.280       .  A
O677       Cd686   2.117       .  S
O678        C692   1.297       .  A
O678       Cd682   2.182       .  S
O679        C690   1.289       .  A
O679      Cd2010   2.127       .  S
Zn680       O691   2.063       .  S
Zn680       O693   2.071       .  S
Zn680       O685   1.923       .  S
O681      Cd2014   2.083   1_545  S
Cd682      O2007   2.132   1_545  S
Cd682       O684   2.170       .  S
Cd682      O2013   1.987   1_545  S
Cd683      O2015   1.988       .  S
Cd683       O685   1.930       .  S
O684        C694   1.286       .  A
O685      Cd2010   2.003       .  S
Cd686      O2009   2.087       .  S
Cd686       O688   2.134       .  S
O687        C694   1.264   1_565  A
O687      Cd2011   2.001       .  S
C689       C1274   1.469       .  S
C689        O693   1.282       .  A
C690        C783   1.512       .  S
C694       C1316   1.491       .  S
C695       C1260   1.469       .  S
C695        O696   1.265       .  A
C697        C698   1.420       .  A
C697        C702   1.415       .  A
C698        C699   1.418       .  A
C699        C700   1.417       .  A
C700        C701   1.413       .  A
C700        H704   1.083       .  S
C701        C702   1.414       .  A
C701        C757   1.510       .  S
C702        H705   1.083       .  S
C706        C707   1.405   1_455  A
C706        C711   1.413   1_455  A
C706       C1249   1.477       .  S
C707        C708   1.403       .  A
C707        H712   1.084   1_655  S
C708        C709   1.395       .  A
C708       C1277   1.477       .  S
C709        C710   1.391       .  A
C709        H713   1.084       .  S
C710        C711   1.406       .  A
C710       C1232   1.486       .  S
C711        H714   1.084       .  S
O715        C731   1.288       .  A
O715       Zn721   2.085       .  S
C716        C738   1.507       .  S
C716        O732   1.284       .  A
C716        O729   1.286       .  A
O717        C730   1.262       .  A
O717       Cd724   2.000       .  S
O718        C736   1.279       .  A
O718       Cd727   2.113       .  S
O719        C733   1.291       .  A
O719       Cd723   2.151       .  S
O720        C731   1.288       .  A
O720       Cd723   2.123       .  S
Zn721       O732   2.065       .  S
Zn721       O734   2.078       .  S
Zn721       O726   1.926       .  S
O722        C733   1.285       .  A
O722       Cd727   2.094       .  S
Cd723       O725   2.134       .  S
Cd723       O726   2.007       .  S
Cd724       O728   1.985       .  S
Cd724       O737   2.014       .  S
Cd724       O726   1.937       .  S
O725        C735   1.279       .  A
O726       Cd727   1.978       .  S
Cd727       O729   2.128       .  S
O728        C735   1.262       .  A
C730       C1305   1.468       .  S
C730        O734   1.281       .  A
C731        C822   1.512       .  S
C733        C904   1.510       .  S
C735       C1246   1.467       .  S
C736       C1221   1.468       .  S
C736        O737   1.265       .  A
C738        C739   1.416       .  A
C738        C743   1.418       .  A
C739        C740   1.413       .  A
C739        H744   1.083       .  S
C740        C741   1.418       .  A
C740        C897   1.509       .  S
C741        C742   1.414       .  A
C741        H745   1.083       .  S
C742        C743   1.417       .  A
C742        C798   1.515       .  S
C743        H746   1.083       .  S
C747        C748   1.412       .  A
C747        C752   1.407       .  A
C747       C1207   1.478       .  S
C748        C749   1.405   1_655  A
C748        H753   1.084       .  S
C749        C750   1.392       .  A
C749       C1218   1.486       .  S
C750        C751   1.395   1_455  A
C750        H754   1.085       .  S
C751        C752   1.403       .  A
C751       C1190   1.474   1_655  S
C752        H755   1.083       .  S
O756        C772   1.283       .  A
O756       Zn762   2.062       .  S
C757        O773   1.287       .  A
C757        O770   1.289       .  A
O758        C771   1.261       .  A
O758       Cd765   1.997       .  S
O759        C777   1.278       .  A
O759       Cd768   2.126       .  S
O760        C774   1.284       .  A
O760       Cd764   2.101       .  S
O761        C772   1.288       .  A
O761       Cd764   2.137       .  S
Zn762       O773   2.075       .  S
Zn762       O775   2.065       .  S
Zn762       O767   1.927       .  S
O763        C774   1.289       .  A
O763       Cd768   2.137       .  S
Cd764       O766   2.120       .  S
Cd764       O767   1.978       .  S
Cd765       O769   2.022       .  S
Cd765       O778   2.000       .  S
Cd765       O767   1.945       .  S
O766        C776   1.282       .  A
O767       Cd768   2.002       .  S
Cd768       O770   2.128       .  S
O769        C776   1.267       .  A
C771       C1179   1.467       .  S
C771        O775   1.279       .  A
C772        C779   1.510       .  S
C774        C986   1.508       .  S
C776       C1235   1.474       .  S
C777       C1204   1.467       .  S
C777        O778   1.262       .  A
C779        C780   1.419       .  A
C779        C784   1.416       .  A
C780        C781   1.416       .  A
C780        H785   1.083       .  S
C781        C782   1.417       .  A
C781       C2307   1.512       .  S
C782        C783   1.414       .  A
C782        H786   1.083       .  S
C783        C784   1.416       .  A
C784        H787   1.083       .  S
C788       C2117   1.414       .  A
C788        C793   1.411       .  A
C788       C2490   1.483   1_655  S
C789       C2116   1.414   1_545  A
C789       C2118   1.408       .  A
C789        H794   1.081       .  S
C790       C2117   1.404       .  A
C790        C791   1.388       .  A
C790       C1263   1.483       .  S
C791        C792   1.392       .  A
C791        H795   1.086       .  S
C792        C793   1.406       .  A
C792       C1176   1.473       .  S
C793        H796   1.083       .  S
O797        C813   1.283       .  A
O797       Zn803   2.066       .  S
C798        O814   1.288       .  A
C798        O811   1.290       .  A
O799        C812   1.264       .  A
O799       Cd806   2.004       .  S
O800        C818   1.284       .  A
O800       Cd809   2.163       .  S
O801        C815   1.282       .  A
O801       Cd805   2.077       .  S
O802        C813   1.287       .  A
O802       Cd805   2.129       .  S
Zn803       O814   2.088       .  S
Zn803       O816   2.072       .  S
Zn803       O808   1.916       .  S
O804        C815   1.296       .  A
O804       Cd809   2.178       .  S
Cd805       O807   2.121   1_556  S
Cd805       O808   1.980       .  S
Cd806       O810   2.012       .  S
Cd806       O819   1.994       .  S
Cd806       O808   1.923       .  S
O807        C817   1.280       .  A
O808       Cd809   1.995       .  S
Cd809       O811   2.131       .  S
O810        C817   1.264   1_556  A
C812       C1193   1.464       .  S
C812        O816   1.282       .  A
C813        C820   1.506       .  S
C815       C2275   1.513   1_545  S
C817       C1291   1.469       .  S
C818       C1165   1.479       .  S
C818        O819   1.262       .  A
C820        C821   1.417   1_556  A
C820        C825   1.417       .  A
C821        H826   1.083       .  S
C823        C824   1.415   1_554  A
C823        H827   1.083       .  S
C824        C825   1.414       .  A
C824        C938   1.503       .  S
C825        H828   1.083       .  S
C829        C830   1.412       .  A
C829        C834   1.408       .  A
C829       C1148   1.478       .  S
C830        C831   1.405       .  A
C830        H835   1.084       .  S
C831        C832   1.392       .  A
C831       C1120   1.486       .  S
C832        C833   1.395       .  A
C832        H836   1.085       .  S
C833        C834   1.405       .  A
C833       C1137   1.479       .  S
C834        H837   1.083       .  S
O838        C854   1.281       .  A
O838       Zn844   2.057       .  S
C839        C988   1.503       .  S
C839        O855   1.283       .  A
C839        O852   1.288       .  A
O840        C853   1.262       .  A
O840       Cd847   1.998       .  S
O841        C859   1.279       .  A
O841       Cd850   2.136       .  S
O842       Cd846   2.105       .  S
O843       Cd846   2.151       .  S
Zn844       O855   2.052       .  S
Zn844       O857   2.058       .  S
Zn844       O849   1.931       .  S
O845        C856   1.291       .  A
O845       Cd850   2.150       .  S
Cd846       O848   2.136       .  S
Cd847       O860   1.991       .  S
Cd847       O849   1.941       .  S
O848        C858   1.286       .  A
O849       Cd850   2.010       .  S
Cd850       O852   2.119       .  S
O851        C858   1.268       .  A
C853       C1106   1.464       .  S
C853        O857   1.278       .  A
C858       C1092   1.479       .  S
C859       C1151   1.469       .  S
C859        O860   1.261       .  A
C861        C862   1.411       .  A
C861        C866   1.422       .  A
C862        C863   1.412       .  A
C862        H867   1.083       .  S
C863        C864   1.411       .  A
C863        C977   1.505       .  S
C864        C865   1.418       .  A
C864        H868   1.083       .  S
C865        C866   1.415       .  A
C870        C871   1.415       .  A
C870        C875   1.406       .  A
C870       C1081   1.477       .  S
C871        C872   1.408       .  A
C871        H876   1.084       .  S
C872        C873   1.392       .  A
C872       C1064   1.487       .  S
C873        C874   1.392       .  A
C873        H877   1.085       .  S
C874        C875   1.402       .  A
C874       C1109   1.473       .  S
C875        H878   1.083       .  S
O879        C895   1.282       .  A
O879       Zn885   2.062       .  S
C880        C945   1.515       .  S
C880        O896   1.287       .  A
C880        O893   1.289       .  A
O881        C894   1.266       .  A
O881       Cd888   2.014       .  S
O882        C900   1.280       .  A
O882       Cd891   2.143       .  S
O883        C897   1.283       .  A
O883      Cd2215   2.092   1_545  S
O884        C895   1.288       .  A
O884       Cd887   2.133       .  S
Zn885       O896   2.084       .  S
Zn885       O898   2.066       .  S
Zn885       O890   1.922       .  S
O886        C897   1.292       .  A
O886       Cd891   2.152       .  S
Cd887      O2211   2.094       .  S
Cd887       O889   2.143       .  S
Cd887       O890   1.987       .  S
Cd888       O892   2.014       .  S
Cd888      O2229   1.985       .  S
Cd888       O890   1.931       .  S
O889        C899   1.282       .  A
O890      Cd2219   2.002       .  S
Cd891      O2221   2.130   1_545  S
Cd891      O2218   1.994   1_545  S
O892        C899   1.262       .  A
O893      Cd2219   2.131       .  S
C894       C1134   1.468       .  S
C894        O898   1.282       .  A
C895        C902   1.507       .  S
C899       C1053   1.481       .  S
C900       C1078   1.471       .  S
C900        O901   1.261       .  A
O901      Cd2216   1.997   1_545  S
C902        C903   1.421       .  A
C902        C907   1.412       .  A
C903        C904   1.419       .  A
C903        H908   1.083       .  S
C904        C905   1.416       .  A
C905        C906   1.409       .  A
C905        H909   1.083       .  S
C906        C907   1.411       .  A
C906        C936   1.503       .  S
C907        H910   1.083       .  S
C911        C912   1.407       .  A
C911        C916   1.412       .  A
C911       C1039   1.481       .  S
C912        C913   1.407       .  A
C912        H917   1.083       .  S
C913        C914   1.395       .  A
C913       C1022   1.480       .  S
C914        C915   1.395       .  A
C914        H918   1.084       .  S
C915        C916   1.407       .  A
C915       C1095   1.488       .  S
C916        H919   1.084       .  S
O920        C936   1.285       .  A
O920       Zn926   2.055       .  S
C921        C943   1.503       .  S
C921        O937   1.283       .  A
C921        O934   1.288       .  A
O922        C935   1.262       .  A
O922       Cd929   2.010       .  S
O923        C941   1.281   1_554  A
O923       Cd932   2.126   1_554  S
O924        C938   1.292       .  A
O924       Cd928   2.149       .  S
O925        C936   1.289       .  A
O925       Cd928   2.119       .  S
Zn926       O937   2.064       .  S
Zn926       O939   2.076       .  S
Zn926       O931   1.900       .  S
O927        C938   1.283       .  A
O927       Cd932   2.075       .  S
Cd928       O930   2.151       .  S
Cd928       O931   1.987       .  S
Cd929       O933   1.988       .  S
Cd929       O942   2.001       .  S
Cd929       O931   1.902       .  S
O930        C940   1.282       .  A
O931       Cd932   1.965       .  S
Cd932       O934   2.129       .  S
O933        C940   1.262       .  A
C935       C1008   1.462       .  S
C935        O939   1.281       .  A
C940       C1036   1.472       .  S
C941       C1123   1.467   1_556  S
C941        O942   1.260       .  A
C943        C944   1.414   1_556  A
C943        C948   1.418       .  A
C946        C947   1.418   1_554  A
C946        H950   1.083       .  S
C947        C948   1.415       .  A
C947       C2143   1.507       .  S
C948        H951   1.083       .  S
C952        C953   1.409       .  A
C952       C2285   1.415       .  A
C952       C2322   1.483       .  S
C953        C954   1.403       .  A
C953        H958   1.083       .  S
C954        C955   1.392       .  A
C954       C1011   1.471       .  S
C955        C956   1.392       .  A
C955        H959   1.085       .  S
C956       C2285   1.410       .  A
C956       C1050   1.491       .  S
C957       C2280   1.410   1_545  A
C957       C2284   1.404       .  A
C957        H960   1.084       .  S
O961        C977   1.285       .  A
O961       Zn967   2.058       .  S
C962        C984   1.508       .  S
C962        O978   1.281       .  A
C962        O975   1.292       .  A
O963        C976   1.262       .  A
O963       Cd970   2.003       .  S
O964        C982   1.285       .  A
O964       Cd973   2.132       .  S
O965        C979   1.288       .  A
O965       Cd969   2.139       .  S
O966        C977   1.289       .  A
O966       Cd969   2.125       .  S
Zn967       O978   2.037       .  S
Zn967       O980   2.076       .  S
Zn967       O972   1.922       .  S
O968        C979   1.287       .  A
O968       Cd973   2.114       .  S
Cd969       O971   2.122       .  S
Cd969       O972   2.002       .  S
Cd970       O974   2.007       .  S
Cd970       O983   2.016       .  S
Cd970       O972   1.926       .  S
O971        C981   1.276       .  A
O972       Cd973   1.965       .  S
Cd973       O975   2.155       .  S
O974        C981   1.261       .  A
C976       C1025   1.473       .  S
C976        O980   1.279       .  A
C979       C2109   1.514   1_545  S
C981        C997   1.465   1_545  S
C982       C1067   1.479       .  S
C982        O983   1.267       .  A
C984        C985   1.419       .  A
C984        C989   1.412       .  A
C985        C986   1.415       .  A
C985        H990   1.083       .  S
C986        C987   1.414       .  A
C987        C988   1.412       .  A
C987        H991   1.083       .  S
C988        C989   1.415       .  A
C989        H992   1.083       .  S
C993       C2322   1.403       .  A
C993        C998   1.409       .  A
C993       H1000   1.084       .  S
C994       C2321   1.403       .  A
C994        C995   1.408   1_565  A
C994       C2280   1.477       .  S
C995        C996   1.397       .  A
C995       N1002   1.428       .  S
C996        C997   1.402   1_545  A
C996       H1001   1.084       .  S
C997       C2326   1.411       .  A
C998       C2325   1.412       .  A
C998        N999   1.438       .  S
N999       H1003   1.046       .  S
N999       H1004   1.045       .  S
N1002      H1005   1.045   1_545  S
N1002      H1006   1.046       .  S
C1007      C1008   1.398       .  A
C1007      C1012   1.397       .  A
C1007      H1014   1.085       .  S
C1008      C1009   1.406       .  A
C1009      C1010   1.407       .  A
C1009      N1016   1.437       .  S
C1010      C1011   1.407       .  A
C1010      H1015   1.084       .  S
C1011      C1012   1.416       .  A
C1012      N1013   1.438       .  S
N1013      H1017   1.046       .  S
N1013      H1018   1.043       .  S
N1016      H1019   1.046       .  S
N1016      H1020   1.045       .  S
C1021      C1022   1.401       .  A
C1021      C1026   1.400       .  A
C1021      H1028   1.084       .  S
C1022      C1023   1.414       .  A
C1023      C1024   1.404       .  A
C1023      N1030   1.433       .  S
C1024      C1025   1.400       .  A
C1024      H1029   1.084       .  S
C1025      C1026   1.413       .  A
C1026      N1027   1.433       .  S
N1027      H1031   1.046       .  S
N1027      H1032   1.046       .  S
N1030      H1033   1.045       .  S
N1030      H1034   1.046       .  S
C1035      C1036   1.405       .  A
C1035      C1040   1.400       .  A
C1035      H1042   1.084       .  S
C1036      C1037   1.414       .  A
C1037      C1038   1.405       .  A
C1037      N1044   1.433       .  S
C1038      C1039   1.404       .  A
C1038      H1043   1.084       .  S
C1039      C1040   1.409       .  A
C1040      N1041   1.431       .  S
N1041      H1045   1.045       .  S
N1041      H1046   1.045       .  S
N1044      H1047   1.045       .  S
N1044      H1048   1.045       .  S
C1049      C1050   1.400       .  A
C1049      C1054   1.403       .  A
C1049      H1056   1.083       .  S
C1050      C1051   1.424       .  A
C1051      C1052   1.405       .  A
C1051      N2386   1.438       .  S
C1052      C1053   1.399       .  A
C1052      H1057   1.084       .  S
C1053      C1054   1.419       .  A
C1054      N1055   1.439       .  S
N1055      H1059   1.046       .  S
N1055      H1060   1.045       .  S
N1058      C2379   1.438       .  S
N1058      H2389   1.045       .  S
N1058      H2390   1.046       .  S
H1061      N2386   1.045       .  S
H1062      N2386   1.046       .  S
C1063      C1064   1.400       .  A
C1063      C1068   1.398       .  A
C1063      H1070   1.084       .  S
C1064      C1065   1.423       .  A
C1065      C1066   1.402       .  A
C1065      N1072   1.438       .  S
C1066      C1067   1.399       .  A
C1066      H1071   1.084       .  S
C1067      C1068   1.421       .  A
C1068      N1069   1.433       .  S
N1069      H1073   1.044       .  S
N1069      H1074   1.045       .  S
N1072      H1075   1.045   1_545  S
N1072      H1076   1.045       .  S
C1077      C1078   1.406       .  A
C1077      C1082   1.402       .  A
C1077      H1084   1.084       .  S
C1078      C1079   1.410       .  A
C1079      C1080   1.410       .  A
C1079      N1086   1.437       .  S
C1080      C1081   1.403       .  A
C1080      H1085   1.084       .  S
C1081      C1082   1.404       .  A
C1082      N1083   1.433       .  S
N1083      H1087   1.046       .  S
N1083      H1088   1.046   1_545  S
N1086      H1089   1.045       .  S
N1086      H1090   1.046       .  S
C1091      C1092   1.400       .  A
C1091      C1096   1.404       .  A
C1091      H1098   1.084       .  S
C1092      C1093   1.419       .  A
C1093      C1094   1.397       .  A
C1093      N1100   1.432       .  S
C1094      C1095   1.401       .  A
C1094      H1099   1.084       .  S
C1095      C1096   1.421       .  A
C1096      N1097   1.438       .  S
N1097      H1101   1.045       .  S
N1097      H1102   1.046       .  S
N1100      H1103   1.045       .  S
N1100      H1104   1.044       .  S
C1105      C1106   1.396       .  A
C1105      C1110   1.396       .  A
C1105      H1112   1.084       .  S
C1106      C1107   1.413       .  A
C1107      C1108   1.403       .  A
C1107      N1114   1.439       .  S
C1108      C1109   1.401       .  A
C1108      H1113   1.084       .  S
C1109      C1110   1.418       .  A
C1110      N1111   1.437       .  S
N1111      H1115   1.046       .  S
N1111      H1116   1.045       .  S
N1114      H1117   1.046       .  S
N1114      H1118   1.046       .  S
C1119      C1120   1.412       .  A
C1119      C1124   1.405       .  A
C1119      H1126   1.084       .  S
C1120      C1121   1.412       .  A
C1121      N1128   1.438       .  S
C1122      C1123   1.406   1_556  A
C1122      H1127   1.084       .  S
C1124      N1125   1.437       .  S
N1125      H1129   1.046       .  S
N1128      H1131   1.046       .  S
C1133      C1134   1.397       .  A
C1133      C1138   1.397       .  A
C1133      H1140   1.084       .  S
C1134      C1135   1.413       .  A
C1135      C1136   1.404       .  A
C1135      N1142   1.439       .  S
C1136      C1137   1.402       .  A
C1136      H1141   1.084       .  S
C1137      C1138   1.420       .  A
C1138      N1139   1.437       .  S
N1139      H1143   1.046       .  S
N1139      H1144   1.045       .  S
N1142      H1145   1.046       .  S
N1142      H1146   1.046       .  S
C1147      C1148   1.400       .  A
C1147      C1152   1.404       .  A
C1147      H1154   1.084       .  S
C1148      C1149   1.406       .  A
C1149      C1150   1.405       .  A
C1149      N1156   1.432       .  S
C1150      C1151   1.403       .  A
C1150      H1155   1.084       .  S
C1151      C1152   1.419       .  A
C1152      N1153   1.438       .  S
N1153      H1157   1.046       .  S
N1153      H1158   1.045       .  S
N1156      H1159   1.045       .  S
N1156      H1160   1.046       .  S
C1161      C1162   1.400   1_545  A
C1161      C1166   1.406       .  A
C1161      H1168   1.083       .  S
C1162      C2491   1.411       .  A
C1162      C2116   1.487   1_455  S
C1163      C2490   1.414       .  A
C1163      C1164   1.412       .  A
C1163      N1170   1.438       .  S
C1164      C2493   1.402       .  A
C1164      H1169   1.084       .  S
C1165      C2492   1.404   1_545  A
C1165      C1166   1.412       .  A
C1166      N1167   1.433       .  S
N1167      H1171   1.046       .  S
N1167      H1172   1.045       .  S
N1170      H1173   1.046       .  S
N1170      H1174   1.046       .  S
C1175      C1176   1.402       .  A
C1175      C1180   1.397       .  A
C1175      H1182   1.084       .  S
C1176      C1177   1.416       .  A
C1177      C1178   1.401       .  A
C1177      N1184   1.438       .  S
C1178      C1179   1.397       .  A
C1178      H1183   1.084       .  S
C1179      C1180   1.415       .  A
C1180      N1181   1.433       .  S
N1181      H1185   1.045       .  S
N1181      H1186   1.045       .  S
N1184      H1187   1.043       .  S
N1184      H1188   1.046       .  S
C1189      C1190   1.402       .  A
C1189      C1194   1.403       .  A
C1189      H1196   1.084   1_455  S
C1190      C1191   1.418       .  A
C1191      C1192   1.398       .  A
C1191      N1198   1.438       .  S
C1192      C1193   1.397       .  A
C1192      H1197   1.084       .  S
C1193      C1194   1.412       .  A
C1194      N1195   1.439       .  S
N1195      H1199   1.046       .  S
N1195      H1200   1.045       .  S
N1198      H1201   1.045       .  S
N1198      H1202   1.046       .  S
C1203      C1204   1.405       .  A
C1203      C1208   1.407       .  A
C1203      H1210   1.084       .  S
C1204      C1205   1.415       .  A
C1205      C1206   1.401       .  A
C1205      N1212   1.438       .  S
C1206      C1207   1.401       .  A
C1206      H1211   1.084       .  S
C1207      C1208   1.408       .  A
C1208      N1209   1.437       .  S
N1209      H1213   1.045       .  S
N1209      H1214   1.046       .  S
N1212      H1215   1.044       .  S
N1212      H1216   1.046       .  S
C1217      C1218   1.412       .  A
C1217      C1222   1.405       .  A
C1217      H1224   1.084       .  S
C1218      C1219   1.412       .  A
C1219      C1220   1.403       .  A
C1219      N1226   1.439   1_455  S
C1220      C1221   1.404       .  A
C1220      H1225   1.084       .  S
C1221      C1222   1.401       .  A
C1222      N1223   1.437       .  S
N1223      H1227   1.046       .  S
N1223      H1228   1.046       .  S
N1226      H1229   1.046       .  S
N1226      H1230   1.046   1_655  S
C1231      C1232   1.401       .  A
C1231      C1236   1.405       .  A
C1231      H1238   1.084       .  S
C1232      C1233   1.418       .  A
C1233      C1234   1.406       .  A
C1233      N1240   1.438       .  S
C1234      C1235   1.397       .  A
C1234      H1239   1.084       .  S
C1235      C1236   1.415       .  A
C1236      N1237   1.438       .  S
N1237      H1241   1.046       .  S
N1237      H1242   1.045       .  S
N1240      H1243   1.045       .  S
N1240      H1244   1.046       .  S
C1245      C1246   1.403       .  A
C1245      C1250   1.408       .  A
C1245      H1252   1.084       .  S
C1246      C1247   1.417       .  A
C1247      C1248   1.400       .  A
C1247      N1254   1.438       .  S
C1248      C1249   1.398       .  A
C1248      H1253   1.083       .  S
C1249      C1250   1.409       .  A
C1250      N1251   1.437       .  S
N1251      H1255   1.046       .  S
N1251      H1256   1.046       .  S
N1254      H1257   1.045       .  S
N1254      H1258   1.046       .  S
C1259      C1260   1.403       .  A
C1259      C1264   1.394       .  A
C1259      H1266   1.085       .  S
C1260      C1261   1.404       .  A
C1261      C1262   1.408       .  A
C1261      N1268   1.437       .  S
C1262      C1263   1.413       .  A
C1262      H1267   1.084       .  S
C1263      C1264   1.414       .  A
C1264      N1265   1.433       .  S
N1265      H1269   1.044       .  S
N1265      H1270   1.046       .  S
N1268      H1271   1.045       .  S
N1268      H1272   1.046       .  S
C1273      C1274   1.398       .  A
C1273      C1278   1.397       .  A
C1273      H1280   1.084       .  S
C1274      C1275   1.414       .  A
C1275      C1276   1.403       .  A
C1275      N1282   1.439       .  S
C1276      C1277   1.401       .  A
C1276      H1281   1.084       .  S
C1277      C1278   1.419       .  A
C1278      N1279   1.437       .  S
N1279      H1283   1.045       .  S
N1279      H1284   1.045       .  S
N1282      H1285   1.045       .  S
N1282      H1286   1.046       .  S
C1287      C1288   1.412       .  A
C1287      C1292   1.404       .  A
C1287      H1294   1.084       .  S
C1288      C1289   1.415       .  A
C1289      N1296   1.433       .  S
C1290      C1291   1.402       .  A
C1290      H1295   1.085   1_554  S
C1292      N1293   1.431       .  S
N1293      H1297   1.045   1_545  S
N1296      H1299   1.046   1_455  S
C1301      C1302   1.402       .  A
C1301      C1306   1.405       .  A
C1301      H1308   1.084   1_455  S
C1302      C1303   1.420       .  A
C1303      C1304   1.400       .  A
C1303      N1310   1.437       .  S
C1304      C1305   1.397       .  A
C1304      H1309   1.084       .  S
C1305      C1306   1.412       .  A
C1306      N1307   1.439       .  S
N1307      H1311   1.046       .  S
N1307      H1312   1.045       .  S
N1310      H1313   1.045       .  S
N1310      H1314   1.045       .  S
C1315      C1316   1.410       .  A
C1315      C1320   1.404       .  A
C1315      H1322   1.084   1_545  S
C1316      C1317   1.413       .  A
C1317      C1318   1.416       .  A
C1317      N1324   1.437       .  S
C1318      C1319   1.407       .  A
C1318      H1323   1.083       .  S
C1319      C1320   1.407       .  A
C1320      N1321   1.439   1_545  S
N1321      H1325   1.045       .  S
N1321      H1326   1.046       .  S
N1324      H1327   1.046       .  S
N1324      H1328   1.045       .  S
C1329      C1330   1.409       .  A
C1329      C1334   1.413       .  A
C1329      C1983   1.482       .  S
C1330      C1331   1.407       .  A
C1330      H1335   1.083       .  S
C1331      C1332   1.394   1_655  A
C1331      C1966   1.476   1_655  S
C1332      C1333   1.391       .  A
C1332      H1336   1.086       .  S
C1333      C1334   1.406   1_455  A
C1333      C1952   1.486       .  S
C1334      H1337   1.083       .  S
O1338      C1354   1.286       .  A
O1338     Zn1344   2.071       .  S
C1339      C2025   1.510       .  S
C1339      O1355   1.282       .  A
C1339      O2016   1.291       .  A
O1340      C1353   1.264       .  A
O1340     Cd1347   2.004       .  S
O1341      C1359   1.284   1_565  A
O1341     Cd1350   2.134       .  S
O1342      C1356   1.293       .  A
O1342     Cd1346   2.164   1_556  S
O1343      C1354   1.291       .  A
Zn1344     O1355   2.058   1_554  S
Zn1344     O1357   2.075       .  S
Zn1344     O1349   1.914   1_554  S
O1345      C2020   1.283       .  A
Cd1346     O1348   2.145       .  S
Cd1347     O2024   2.008   1_565  S
Cd1347     O1349   1.911       .  S
O1348      C1358   1.281       .  A
O1349     Cd2014   1.970       .  S
Cd1350     O1352   2.150       .  S
Cd1350     O2013   1.962       .  S
O1351      C1358   1.263       .  A
O1352      C2003   1.291       .  A
C1353      C1938   1.462       .  S
C1353      O1357   1.281   1_556  A
C1354      C1447   1.512       .  S
C1356      C2193   1.512       .  S
C1356      O2009   1.283       .  A
C1358      C1980   1.473       .  S
C1359      C1924   1.474       .  S
C1359      O1360   1.264       .  A
O1360     Cd2011   2.001   1_545  S
C1361      C1362   1.420       .  A
C1361      C1366   1.415       .  A
C1361      C2003   1.509       .  S
C1362      C1363   1.416       .  A
C1362      H2031   1.083       .  S
C1363      C1364   1.419       .  A
C1363      C2184   1.514       .  S
C1364      C1365   1.414       .  A
C1364      H1368   1.083       .  S
C1365      C1366   1.416       .  A
C1365      C1421   1.512       .  S
C1366      H1369   1.083       .  S
H1367      C2026   1.083       .  S
C1370      C1371   1.405   1_455  A
C1370      C1375   1.413   1_455  A
C1370      C1913   1.481       .  S
C1371      C1372   1.403       .  A
C1371      H1376   1.084   1_655  S
C1372      C1373   1.395       .  A
C1372      C1941   1.474   1_554  S
C1373      C1374   1.395       .  A
C1373      H1377   1.084       .  S
C1374      C1375   1.410       .  A
C1374      C1896   1.491       .  S
C1375      H1378   1.084       .  S
O1379      C1395   1.286       .  A
O1379     Zn1385   2.069       .  S
C1380      C1402   1.507       .  S
C1380      O1396   1.283       .  A
C1380      O1393   1.286       .  A
O1381      C1394   1.265       .  A
O1381     Cd1388   2.011       .  S
O1382      C1400   1.280       .  A
O1382     Cd1391   2.115       .  S
O1383      C1397   1.293       .  A
O1383     Cd1387   2.166       .  S
O1384      C1395   1.288       .  A
O1384     Cd1387   2.125       .  S
Zn1385     O1396   2.065       .  S
Zn1385     O1398   2.072       .  S
Zn1385     O1390   1.927       .  S
O1386      C1397   1.283       .  A
O1386     Cd1391   2.089       .  S
Cd1387     O1389   2.144       .  S
Cd1387     O1390   2.010       .  S
Cd1388     O1392   1.986       .  S
Cd1388     O1401   2.009       .  S
Cd1388     O1390   1.938       .  S
O1389      C1399   1.281       .  A
O1390     Cd1391   1.986       .  S
Cd1391     O1393   2.130       .  S
O1392      C1399   1.261       .  A
C1394      C1969   1.467       .  S
C1394      O1398   1.281       .  A
C1395      C1486   1.508       .  S
C1397      C1568   1.513       .  S
C1399      C1910   1.471       .  S
C1400      C1885   1.468       .  S
C1400      O1401   1.264       .  A
C1402      C1403   1.418       .  A
C1402      C1407   1.418       .  A
C1403      C1404   1.414       .  A
C1403      H1408   1.083       .  S
C1404      C1405   1.420       .  A
C1404      C1561   1.511       .  S
C1405      C1406   1.412       .  A
C1405      H1409   1.083       .  S
C1406      C1407   1.417       .  A
C1406      C1462   1.515       .  S
C1407      H1410   1.083       .  S
C1411      C1412   1.410       .  A
C1411      C1416   1.408       .  A
C1411      C1871   1.484       .  S
C1412      C1413   1.405   1_655  A
C1412      H1417   1.083       .  S
C1413      C1414   1.394       .  A
C1413      C1882   1.492       .  S
C1414      C1415   1.397       .  A
C1414      H1418   1.083       .  S
C1415      C1416   1.408   1_455  A
C1415      C1854   1.482       .  S
C1416      H1419   1.083       .  S
O1420      C1436   1.282       .  A
O1420     Zn1426   2.056       .  S
C1421      O1437   1.285       .  A
C1421      O1434   1.290       .  A
O1422      C1435   1.264       .  A
O1422     Cd1429   2.008       .  S
O1423      C1441   1.281       .  A
O1423     Cd1432   2.142       .  S
O1424      C1438   1.284       .  A
O1424     Cd1428   2.097       .  S
O1425      C1436   1.289       .  A
O1425     Cd1428   2.140       .  S
Zn1426     O1437   2.071       .  S
Zn1426     O1439   2.066       .  S
Zn1426     O1431   1.927       .  S
O1427      C1438   1.292       .  A
O1427     Cd1432   2.158       .  S
Cd1428     O1430   2.135       .  S
Cd1428     O1431   1.986       .  S
Cd1429     O1433   2.017       .  S
Cd1429     O1442   1.991       .  S
Cd1429     O1431   1.934       .  S
O1430      C1440   1.282       .  A
O1431     Cd1432   2.006       .  S
Cd1432     O1434   2.137       .  S
O1433      C1440   1.264       .  A
C1435      C1843   1.469       .  S
C1435      O1439   1.280       .  A
C1436      C1443   1.508       .  S
C1438      C1650   1.512       .  S
C1440      C1899   1.478       .  S
C1441      C1868   1.470       .  S
C1441      O1442   1.262       .  A
C1443      C1444   1.421       .  A
C1443      C1448   1.415       .  A
C1444      C1445   1.416       .  A
C1444      H1449   1.083       .  S
C1445      C1446   1.421       .  A
C1446      C1447   1.412       .  A
C1446      H1450   1.083   1_565  S
C1447      C1448   1.414       .  A
C1448      H1451   1.083       .  S
C1452      C1457   1.410       .  A
C1453      H1458   1.082       .  S
C1454      C1455   1.392   1_545  A
C1454      C1927   1.489       .  S
C1455      C1456   1.393       .  A
C1455      H1459   1.085       .  S
C1456      C1457   1.407       .  A
C1456      C1840   1.479       .  S
C1457      H1460   1.083       .  S
O1461      C1477   1.281       .  A
O1461     Zn1467   2.043       .  S
C1462      O1478   1.286       .  A
C1462      O1475   1.292       .  A
O1463      C1476   1.263       .  A
O1463     Cd1470   2.007       .  S
O1464      C1482   1.281       .  A
O1464     Cd1473   2.141       .  S
O1465      C1479   1.282       .  A
O1465     Cd1469   2.089       .  S
O1466      C1477   1.287       .  A
O1466     Cd1469   2.128       .  S
Zn1467     O1478   2.073       .  S
Zn1467     O1480   2.077       .  S
Zn1467     O1472   1.925       .  S
O1468      C1479   1.295       .  A
O1468     Cd1473   2.173       .  S
Cd1469     O1471   2.116       .  S
Cd1469     O1472   1.976       .  S
Cd1470     O1474   2.016       .  S
Cd1470     O1483   1.999       .  S
Cd1470     O1472   1.931       .  S
O1471      C1481   1.281       .  A
O1472     Cd1473   1.998       .  S
Cd1473     O1475   2.144       .  S
O1474      C1481   1.266       .  A
C1476      C1857   1.473       .  S
C1476      O1480   1.281       .  A
C1477      C1484   1.501       .  S
C1481      C1955   1.467       .  S
C1482      C1829   1.471       .  S
C1482      O1483   1.263       .  A
C1484      C1485   1.412       .  A
C1484      C1489   1.417       .  A
C1485      C2150   1.412       .  A
C1485      H1490   1.083       .  S
C1486      C2149   1.413       .  A
C1486      C2151   1.413       .  A
C1487      C2150   1.415       .  A
C1487      C1488   1.422       .  A
C1487      H1491   1.083       .  S
C1488      C1489   1.413       .  A
C1488      C1602   1.512       .  S
C1489      H1492   1.083       .  S
C1493      C1494   1.411       .  A
C1493      C1498   1.405       .  A
C1493      C1812   1.475       .  S
C1494      C1495   1.403       .  A
C1494      H1499   1.084       .  S
C1495      C1496   1.391       .  A
C1495      C1784   1.483       .  S
C1496      C1497   1.397       .  A
C1496      H1500   1.084       .  S
C1497      C1498   1.404       .  A
C1497      C1801   1.477       .  S
C1498      H1501   1.083       .  S
O1502      C1518   1.280       .  A
O1502     Zn1508   2.044   1_556  S
C1503      C1652   1.508       .  S
C1503      O1519   1.284       .  A
C1503      O1516   1.288       .  A
O1504      C1517   1.262   1_556  A
O1504     Cd1511   2.001       .  S
O1505      C1523   1.279       .  A
O1505     Cd1514   2.130       .  S
O1506      C2184   1.284       .  A
O1506     Cd1510   2.098       .  S
O1507      C2182   1.290       .  A
O1507     Cd1510   2.138       .  S
Zn1508     O1519   2.062       .  S
Zn1508     O1521   2.058       .  S
Zn1508     O1513   1.936   1_554  S
O1509      C1520   1.291       .  A
O1509     Cd1514   2.157   1_556  S
Cd1510     O1512   2.136       .  S
Cd1510     O2177   1.974       .  S
Cd1511     O2179   2.024       .  S
Cd1511     O1524   1.996   1_556  S
Cd1511     O1513   1.950       .  S
O1512      C1522   1.284       .  A
O1513     Cd2174   1.987       .  S
O1513     Cd1514   2.011   1_556  S
Cd1514     O1516   2.128       .  S
O1515      C1522   1.266       .  A
O1515     Cd2175   2.018       .  S
C1517      C1770   1.468       .  S
C1517      O1521   1.278       .  A
C1518      C2189   1.509       .  S
C1518      O2171   1.289       .  A
C1520      C2027   1.516       .  S
C1520      O2170   1.286       .  A
C1522      C1756   1.477       .  S
C1523      C1815   1.467       .  S
C1523      O1524   1.263       .  A
C1525      C1526   1.411       .  A
C1525      C1530   1.421       .  A
C1525      C2182   1.504       .  S
C1526      C1527   1.411       .  A
C1526      H1531   1.083       .  S
C1527      C1528   1.411       .  A
C1527      C1641   1.507       .  S
C1528      C1529   1.420       .  A
C1528      H1532   1.083       .  S
C1529      C1530   1.417       .  A
C1529      C2020   1.513       .  S
C1530      H2197   1.083       .  S
H1533      C2194   1.083       .  S
C1534      C1535   1.417       .  A
C1534      C1539   1.408       .  A
C1534      C1745   1.483       .  S
C1535      C1536   1.409       .  A
C1535      H1540   1.084       .  S
C1536      C1537   1.391       .  A
C1536      C1728   1.491       .  S
C1537      C1538   1.393       .  A
C1537      H1541   1.085       .  S
C1538      C1539   1.403       .  A
C1538      C1773   1.475       .  S
C1539      H1542   1.083       .  S
O1543      C1559   1.282       .  A
O1543     Zn1549   2.068       .  S
C1544      C1609   1.513       .  S
C1544      O1560   1.286       .  A
C1544      O1557   1.290       .  A
O1545      C1558   1.265       .  A
O1545     Cd1552   2.009       .  S
O1546      C1564   1.284       .  A
O1546     Cd1555   2.162       .  S
O1547      C1561   1.283       .  A
O1548      C1559   1.287       .  A
O1548     Cd1551   2.138       .  S
Zn1549     O1560   2.078       .  S
Zn1549     O1562   2.053       .  S
Zn1549     O1554   1.927       .  S
O1550      C1561   1.296       .  A
O1550     Cd1555   2.174       .  S
Cd1551     O1553   2.124       .  S
Cd1551     O1554   1.988       .  S
Cd1552     O1556   2.023   1_565  S
Cd1552     O1554   1.950       .  S
O1553      C1563   1.281   1_565  A
O1556      C1563   1.266       .  A
C1558      C1798   1.466       .  S
C1558      O1562   1.280       .  A
C1559      C1566   1.511       .  S
C1563      C1717   1.479       .  S
C1564      C1742   1.480       .  S
C1564      O1565   1.262       .  A
C1566      C1567   1.420       .  A
C1566      C1571   1.417       .  A
C1567      C1568   1.417       .  A
C1567      H1572   1.083       .  S
C1568      C1569   1.419       .  A
C1569      C1570   1.411       .  A
C1569      H1573   1.083       .  S
C1570      C1571   1.417       .  A
C1570      C1600   1.514       .  S
C1571      H1574   1.083       .  S
C1575      C1576   1.405       .  A
C1575      C1580   1.410       .  A
C1575      C1703   1.482       .  S
C1576      C1577   1.407       .  A
C1576      H1581   1.083       .  S
C1577      C1578   1.397       .  A
C1577      C1686   1.476       .  S
C1578      C1579   1.394       .  A
C1578      H1582   1.084       .  S
C1579      C1580   1.407       .  A
C1579      C1759   1.488       .  S
C1580      H1583   1.084       .  S
O1584      C1600   1.286       .  A
O1584     Zn1590   2.072       .  S
C1585      C1607   1.503       .  S
C1585      O1601   1.282       .  A
C1585      O1598   1.286       .  A
O1586      C1599   1.265       .  A
O1586     Cd1593   2.012       .  S
O1587      C1605   1.280       .  A
O1587     Cd1596   2.118       .  S
O1588      C1602   1.296       .  A
O1588     Cd1592   2.176       .  S
O1589      C1600   1.292       .  A
O1589     Cd1592   2.145       .  S
Zn1590     O1601   2.059       .  S
Zn1590     O1603   2.068       .  S
Zn1590     O1595   1.917       .  S
O1591      C1602   1.281       .  A
O1591     Cd1596   2.076       .  S
Cd1592     O1594   2.153       .  S
Cd1592     O1595   1.995       .  S
Cd1593     O1597   1.988       .  S
Cd1593     O1606   2.005       .  S
Cd1593     O1595   1.926       .  S
O1594      C1604   1.282       .  A
O1595     Cd1596   1.981       .  S
Cd1596     O1598   2.122       .  S
O1597      C1604   1.262       .  A
C1599      C1672   1.461       .  S
C1599      O1603   1.281       .  A
C1604      C1700   1.472       .  S
C1605      C1787   1.464       .  S
C1605      O1606   1.261       .  A
C1607      C1608   1.414       .  A
C1607      C1612   1.419       .  A
C1608      C2273   1.412       .  A
C1608      H2277   1.083       .  S
C1609      C2272   1.415       .  A
C1609      C2274   1.413       .  A
C1610      C2273   1.411       .  A
C1610      C1611   1.420       .  A
C1610      H1614   1.083   1_565  S
C1611      C1612   1.415       .  A
C1612      H1615   1.083       .  S
H1613      C2272   1.083       .  S
C1616      C1617   1.404       .  A
C1617      C1618   1.402       .  A
C1617      H1622   1.084       .  S
C1618      C1619   1.396       .  A
C1618      C1675   1.473       .  S
C1619      C1620   1.395   1_565  A
C1619      H1623   1.085       .  S
C1620      C1714   1.493       .  S
C1621      H1624   1.084       .  S
O1625      C1641   1.285       .  A
O1625     Zn1631   2.060       .  S
C1626      C1648   1.508       .  S
C1626      O1642   1.281       .  A
C1626      O1639   1.291       .  A
O1627      C1640   1.262       .  A
O1627     Cd1634   1.997       .  S
O1628      C1646   1.285       .  A
O1628     Cd1637   2.145       .  S
O1629      C1643   1.294       .  A
O1629     Cd1633   2.166       .  S
O1630      C1641   1.289       .  A
O1630     Cd1633   2.128       .  S
Zn1631     O1642   2.047       .  S
Zn1631     O1644   2.064       .  S
Zn1631     O1636   1.915       .  S
O1632      C1643   1.285       .  A
O1632     Cd1637   2.089       .  S
Cd1633     O1635   2.157       .  S
Cd1633     O1636   2.000       .  S
Cd1634     O1638   1.980       .  S
Cd1634     O1647   2.012       .  S
Cd1634     O1636   1.909       .  S
O1635      C1645   1.284       .  A
O1636     Cd1637   1.966       .  S
Cd1637     O1639   2.148       .  S
O1638      C1645   1.262       .  A
C1640      C1689   1.459       .  S
C1640      O1644   1.279       .  A
C1645      C1661   1.478       .  S
C1646      C1731   1.483       .  S
C1646      O1647   1.264       .  A
C1648      C1649   1.421       .  A
C1648      C1653   1.414       .  A
C1649      C1650   1.416       .  A
C1649      H1654   1.083       .  S
C1650      C1651   1.417       .  A
C1651      C1652   1.412       .  A
C1651      H1655   1.083       .  S
C1652      C1653   1.415       .  A
C1653      H1656   1.083       .  S
C1657      C1662   1.406       .  A
C1657      H1664   1.084       .  S
C1658      C1659   1.408       .  A
C1659      C1660   1.395       .  A
C1659      N1666   1.433       .  S
C1660      C1661   1.408       .  A
C1660      H1665   1.085       .  S
C1662      N1663   1.438       .  S
N1663      H1667   1.046       .  S
N1663      H1668   1.045       .  S
N1666      H1669   1.044       .  S
N1666      H1670   1.044       .  S
C1671      C1672   1.396       .  A
C1671      C1676   1.396       .  A
C1671      H1678   1.085       .  S
C1672      C1673   1.405       .  A
C1673      C1674   1.405       .  A
C1673      N1680   1.437       .  S
C1674      C1675   1.408       .  A
C1674      H1679   1.084       .  S
C1675      C1676   1.420       .  A
C1676      N1677   1.439       .  S
N1677      H1681   1.044       .  S
N1677      H1682   1.042       .  S
N1680      H1683   1.045       .  S
N1680      H1684   1.046       .  S
C1685      C1686   1.403       .  A
C1685      C1690   1.399       .  A
C1685      H1692   1.084       .  S
C1686      C1687   1.413       .  A
C1687      C1688   1.401       .  A
C1687      N1694   1.432       .  S
C1688      C1689   1.397       .  A
C1688      H1693   1.084       .  S
C1689      C1690   1.407       .  A
C1690      N1691   1.434       .  S
N1691      H1695   1.046       .  S
N1691      H1696   1.046       .  S
N1694      H1697   1.045       .  S
N1694      H1698   1.046       .  S
C1699      C1700   1.404       .  A
C1699      C1704   1.402       .  A
C1699      H1706   1.084       .  S
C1700      C1701   1.416       .  A
C1701      C1702   1.403       .  A
C1701      N1708   1.433       .  S
C1702      C1703   1.402       .  A
C1702      H1707   1.084       .  S
C1703      C1704   1.409       .  A
C1704      N1705   1.429       .  S
N1705      H1709   1.045       .  S
N1705      H1710   1.046       .  S
N1708      H1711   1.045       .  S
N1708      H1712   1.045       .  S
C1713      C1714   1.402       .  A
C1713      C1718   1.403       .  A
C1713      H1720   1.083       .  S
C1714      C1715   1.424       .  A
C1715      C1716   1.405       .  A
C1716      C1717   1.400       .  A
C1716      H1721   1.084       .  S
C1717      C1718   1.415       .  A
C1718      N1719   1.439       .  S
N1719      H1723   1.046       .  S
N1719      H1724   1.045       .  S
C1727      C1728   1.401       .  A
C1727      C1732   1.400       .  A
C1727      H1734   1.084       .  S
C1728      C1729   1.423       .  A
C1729      C1730   1.404       .  A
C1729      N1736   1.438       .  S
C1730      C1731   1.399       .  A
C1730      H1735   1.084       .  S
C1731      C1732   1.422       .  A
C1732      N1733   1.433       .  S
N1733      H1737   1.044       .  S
N1733      H1738   1.045       .  S
N1736      H1739   1.045       .  S
N1736      H1740   1.045       .  S
C1741      C1742   1.409       .  A
C1741      C1746   1.401       .  A
C1741      H1748   1.085       .  S
C1742      C1743   1.410       .  A
C1743      C1744   1.414       .  A
C1743      N1750   1.436       .  S
C1744      C1745   1.407       .  A
C1744      H1749   1.084       .  S
C1745      C1746   1.403       .  A
C1746      N1747   1.433       .  S
N1747      H1751   1.045       .  S
N1747      H1752   1.046       .  S
N1750      H1753   1.046       .  S
N1750      H1754   1.046       .  S
C1755      C1756   1.400       .  A
C1755      C1760   1.407       .  A
C1755      H1762   1.084       .  S
C1756      C1757   1.416       .  A
C1757      C1758   1.392       .  A
C1757      N1764   1.431       .  S
C1758      C1759   1.400       .  A
C1758      H1763   1.084       .  S
C1759      C1760   1.423       .  A
C1760      N1761   1.438       .  S
N1761      H1765   1.045       .  S
N1761      H1766   1.046       .  S
N1764      H1767   1.044       .  S
N1764      H1768   1.043       .  S
C1769      C1770   1.398   1_556  A
C1769      C1774   1.397       .  A
C1769      H1776   1.084       .  S
C1770      C1771   1.414       .  A
C1771      C1772   1.403       .  A
C1771      N1778   1.439       .  S
C1772      C1773   1.401       .  A
C1772      H1777   1.084       .  S
C1773      C1774   1.418   1_554  A
C1774      N1775   1.438       .  S
N1775      H1779   1.046       .  S
N1775      H1780   1.045       .  S
N1778      H1781   1.046       .  S
N1778      H1782   1.046       .  S
C1783      C1784   1.411       .  A
C1783      C1788   1.406       .  A
C1783      H1790   1.084       .  S
C1784      C1785   1.408       .  A
C1785      C2450   1.400       .  A
C1785      N1792   1.433       .  S
C1786      C2449   1.401       .  A
C1786      C1787   1.403       .  A
C1786      H1791   1.084       .  S
C1787      C2452   1.401       .  A
C1788      C2451   1.403       .  A
C1788      N1789   1.437       .  S
N1789      H1793   1.046       .  S
N1789      H2458   1.046       .  S
N1792      H1795   1.046       .  S
N1792      H2460   1.045   1_554  S
H1794      N2453   1.046       .  S
H1796      N2456   1.046       .  S
C1797      C1798   1.397       .  A
C1797      C1802   1.395       .  A
C1797      H1804   1.084       .  S
C1798      C1799   1.413       .  A
C1799      C1800   1.403       .  A
C1799      N1806   1.439       .  S
C1800      C1801   1.402       .  A
C1800      H1805   1.084       .  S
C1801      C1802   1.418       .  A
C1802      N1803   1.436       .  S
N1803      H1807   1.046       .  S
N1803      H1808   1.045       .  S
N1806      H1809   1.046       .  S
N1806      H1810   1.046       .  S
C1811      C1812   1.399       .  A
C1811      C1816   1.404       .  A
C1811      H1818   1.083       .  S
C1812      C1813   1.405       .  A
C1813      C1814   1.402       .  A
C1813      N1820   1.432       .  S
C1814      C1815   1.402       .  A
C1814      H1819   1.084       .  S
C1815      C1816   1.418       .  A
C1816      N1817   1.438       .  S
N1817      H1821   1.046       .  S
N1817      H1822   1.045       .  S
N1820      H1823   1.045       .  S
N1820      H1824   1.046       .  S
C1825      C1826   1.400       .  A
C1825      C1830   1.406       .  A
C1825      H1832   1.084       .  S
C1827      C1828   1.413       .  A
C1827      N1834   1.438       .  S
C1828      H1833   1.084       .  S
C1829      C1830   1.413       .  A
C1830      N1831   1.438       .  S
N1831      H1835   1.046       .  S
N1831      H1836   1.046       .  S
N1834      H1837   1.046       .  S
N1834      H1838   1.045       .  S
C1839      C1840   1.401       .  A
C1839      C1844   1.398       .  A
C1839      H1846   1.084       .  S
C1840      C1841   1.415       .  A
C1841      C1842   1.400       .  A
C1841      N1848   1.433       .  S
C1842      C1843   1.397       .  A
C1842      H1847   1.084       .  S
C1843      C1844   1.417       .  A
C1844      N1845   1.433       .  S
N1845      H1849   1.044       .  S
N1845      H1850   1.046       .  S
N1848      H1851   1.046       .  S
N1848      H1852   1.044       .  S
C1853      C1854   1.402       .  A
C1853      C1858   1.404       .  A
C1853      H1860   1.084   1_455  S
C1854      C1855   1.420       .  A
C1855      C1856   1.400       .  A
C1855      N1862   1.438       .  S
C1856      C1857   1.399       .  A
C1856      H1861   1.084       .  S
C1857      C1858   1.414       .  A
C1858      N1859   1.439       .  S
N1859      H1863   1.046       .  S
N1859      H1864   1.045       .  S
N1862      H1865   1.045       .  S
N1862      H1866   1.046       .  S
C1867      C1868   1.405       .  A
C1867      C1872   1.411       .  A
C1867      H1874   1.084       .  S
C1868      C1869   1.417       .  A
C1869      C1870   1.399       .  A
C1869      N1876   1.439       .  S
C1870      C1871   1.401       .  A
C1870      H1875   1.084       .  S
C1871      C1872   1.409       .  A
C1872      N1873   1.434       .  S
N1873      H1877   1.046       .  S
N1873      H1878   1.044       .  S
N1876      H1879   1.044       .  S
N1876      H1880   1.045       .  S
C1881      C1882   1.414       .  A
C1881      C1886   1.407       .  A
C1881      H1888   1.084       .  S
C1882      C1883   1.416       .  A
C1883      C1884   1.400       .  A
C1883      N1890   1.438   1_455  S
C1884      C1885   1.402       .  A
C1884      H1889   1.085       .  S
C1885      C1886   1.402       .  A
C1886      N1887   1.437       .  S
N1887      H1891   1.046       .  S
N1887      H1892   1.046       .  S
N1890      H1893   1.046       .  S
N1890      H1894   1.046       .  S
C1895      C1896   1.401       .  A
C1895      C1900   1.403       .  A
C1895      H1902   1.083       .  S
C1896      C1897   1.419       .  A
C1897      C1898   1.410       .  A
C1897      N1904   1.438       .  S
C1898      C1899   1.400       .  A
C1898      H1903   1.084       .  S
C1899      C1900   1.416       .  A
C1900      N1901   1.439       .  S
N1901      H1905   1.046       .  S
N1901      H1906   1.045       .  S
N1904      H1907   1.045       .  S
N1904      H1908   1.046       .  S
C1909      C1910   1.404       .  A
C1909      C1914   1.409       .  A
C1909      H1916   1.084       .  S
C1910      C1911   1.417       .  A
C1911      C1912   1.404       .  A
C1911      N1918   1.438       .  S
C1912      C1913   1.400       .  A
C1912      H1917   1.083       .  S
C1913      C1914   1.409       .  A
C1914      N1915   1.437       .  S
N1915      H1919   1.046       .  S
N1915      H1920   1.045       .  S
N1918      H1921   1.045       .  S
N1918      H1922   1.046       .  S
C1923      C1924   1.405       .  A
C1923      C1928   1.397       .  A
C1923      H1930   1.085   1_545  S
C1924      C1925   1.404       .  A
C1925      C1926   1.408       .  A
C1925      N1932   1.437       .  S
C1926      C1927   1.413       .  A
C1926      H1931   1.084       .  S
C1927      C1928   1.414       .  A
C1928      N1929   1.433   1_545  S
N1929      H1933   1.044   1_565  S
N1929      H1934   1.045       .  S
N1932      H1935   1.045       .  S
N1932      H1936   1.046       .  S
C1937      C1938   1.397       .  A
C1937      C1942   1.399       .  A
C1937      H1944   1.084       .  S
C1938      C1939   1.410   1_556  A
C1939      C1940   1.403       .  A
C1939      N1946   1.439       .  S
C1940      C1941   1.402   1_554  A
C1940      H1945   1.084       .  S
C1941      C1942   1.417       .  A
C1942      N1943   1.435       .  S
N1943      H1947   1.045       .  S
N1943      H1948   1.045       .  S
N1946      H1949   1.045       .  S
N1946      H1950   1.046       .  S
C1951      C1952   1.412       .  A
C1951      C1956   1.409       .  A
C1951      H1958   1.084       .  S
C1952      C1953   1.415       .  A
C1953      C2618   1.396       .  A
C1953      N1960   1.433   1_455  S
C1954      C2617   1.393       .  A
C1954      C1955   1.401       .  A
C1954      H1959   1.085       .  S
C1955      C2620   1.405       .  A
C1956      C2619   1.404       .  A
C1956      N1957   1.437       .  S
N1957      H1961   1.045       .  S
N1957      H2626   1.045       .  S
N1960      H1963   1.046       .  S
N1960      H2628   1.044       .  S
H1962      N2621   1.046       .  S
H1964      N2624   1.044   1_655  S
C1965      C1966   1.403       .  A
C1965      C1970   1.404       .  A
C1965      H1972   1.084   1_455  S
C1966      C1967   1.419       .  A
C1967      C1968   1.400       .  A
C1967      N1974   1.438       .  S
C1968      C1969   1.398       .  A
C1968      H1973   1.084       .  S
C1969      C1970   1.411       .  A
C1970      N1971   1.439       .  S
N1971      H1975   1.046       .  S
N1971      H1976   1.046       .  S
N1974      H1977   1.045       .  S
N1974      H1978   1.046       .  S
C1979      C1980   1.405       .  A
C1979      C1984   1.409       .  A
C1979      H1986   1.084       .  S
C1980      C1981   1.412       .  A
C1981      C1982   1.408       .  A
C1981      N1988   1.439       .  S
C1982      C1983   1.402       .  A
C1982      H1987   1.084       .  S
C1983      C1984   1.408       .  A
C1984      N1985   1.437       .  S
N1985      H1989   1.046       .  S
N1985      H1990   1.045       .  S
N1988      H1991   1.046       .  S
N1988      H1992   1.046       .  S
C1993      C1994   1.411       .  A
C1993      C1998   1.411       .  A
C1993      C2647   1.485       .  S
C1994      C1995   1.410   1_655  A
C1994      H1999   1.083       .  S
C1995      C1996   1.397       .  A
C1995      C2630   1.481       .  S
C1996      C1997   1.390       .  A
C1996      H2000   1.085       .  S
C1997      C1998   1.401   1_455  A
C1997      C2616   1.480       .  S
C1998      H2001   1.083       .  S
O2002      C2018   1.283       .  A
O2002     Zn2008   2.044       .  S
C2003      O2019   1.283       .  A
O2004      C2017   1.260       .  A
O2004     Cd2011   2.000       .  S
O2005      C2023   1.284   1_565  A
O2005     Cd2014   2.140       .  S
O2006      C2020   1.295       .  A
O2006     Cd2010   2.175       .  S
O2007      C2018   1.291       .  A
Zn2008     O2019   2.053       .  S
Zn2008     O2021   2.062       .  S
Zn2008     O2013   1.910       .  S
Cd2010     O2012   2.159       .  S
Cd2011     O2013   1.899       .  S
O2012      C2022   1.283       .  A
Cd2014     O2016   2.149       .  S
O2015      C2022   1.263       .  A
C2017      C2602   1.455       .  S
C2017      O2021   1.278       .  A
C2018      C2111   1.503       .  S
C2022      C2644   1.480       .  S
C2023      C2588   1.478       .  S
C2023      O2024   1.264       .  A
C2025      C2026   1.423       .  A
C2025      C2030   1.412       .  A
C2026      C2027   1.421       .  A
C2027      C2028   1.417       .  A
C2028      C2029   1.412       .  A
C2028      H2032   1.083       .  S
C2029      C2030   1.413       .  A
C2029      C2085   1.508       .  S
C2030      H2033   1.083       .  S
C2034      C2035   1.403       .  A
C2034      C2039   1.413       .  A
C2034      C2577   1.477   1_655  S
C2035      C2036   1.398       .  A
C2035      H2040   1.084       .  S
C2036      C2037   1.393       .  A
C2036      C2605   1.464       .  S
C2037      C2038   1.394       .  A
C2037      H2041   1.085       .  S
C2038      C2039   1.410       .  A
C2038      C2560   1.489       .  S
C2039      H2042   1.084       .  S
O2043      C2059   1.287       .  A
O2043     Zn2049   2.073       .  S
C2044      C2066   1.505       .  S
C2044      O2060   1.281       .  A
C2044      O2057   1.288       .  A
O2045      C2058   1.264       .  A
O2045     Cd2052   2.008       .  S
O2046      C2064   1.281       .  A
O2046     Cd2055   2.119       .  S
O2047      C2061   1.292       .  A
O2047     Cd2051   2.163       .  S
O2048      C2059   1.289       .  A
O2048     Cd2051   2.130       .  S
Zn2049     O2060   2.055       .  S
Zn2049     O2062   2.077       .  S
Zn2049     O2054   1.924       .  S
O2050      C2061   1.284       .  A
O2050     Cd2055   2.097       .  S
Cd2051     O2053   2.141       .  S
Cd2051     O2054   2.005       .  S
Cd2052     O2056   1.991       .  S
Cd2052     O2065   2.009       .  S
Cd2052     O2054   1.932       .  S
O2053      C2063   1.281       .  A
O2054     Cd2055   1.975       .  S
Cd2055     O2057   2.132       .  S
O2056      C2063   1.262       .  A
C2058      C2633   1.472       .  S
C2058      O2062   1.281       .  A
C2059      C2150   1.511       .  S
C2061      C2232   1.514       .  S
C2063      C2574   1.469       .  S
C2064      C2549   1.469       .  S
C2064      O2065   1.265       .  A
C2066      C2067   1.420       .  A
C2066      C2071   1.413       .  A
C2067      C2068   1.416       .  A
C2067      H2072   1.083       .  S
C2068      C2069   1.419       .  A
C2068      C2225   1.512       .  S
C2069      C2070   1.412       .  A
C2069      H2073   1.083       .  S
C2070      C2071   1.412       .  A
C2070      C2126   1.508       .  S
C2071      H2074   1.083       .  S
C2075      C2076   1.412       .  A
C2075      C2080   1.407       .  A
C2075      C2535   1.482       .  S
C2076      C2077   1.406   1_655  A
C2076      H2081   1.083       .  S
C2077      C2078   1.394       .  A
C2077      C2546   1.492       .  S
C2078      C2079   1.395   1_455  A
C2078      H2082   1.085       .  S
C2079      C2080   1.404       .  A
C2079      C2518   1.471   1_655  S
C2080      H2083   1.083       .  S
O2084      C2100   1.281       .  A
O2084     Zn2090   2.056       .  S
C2085      O2101   1.286       .  A
C2085      O2098   1.290       .  A
O2086      C2099   1.262       .  A
O2086     Cd2093   2.006       .  S
O2087      C2105   1.279       .  A
O2087     Cd2096   2.134       .  S
O2088      C2102   1.286       .  A
O2088     Cd2092   2.113       .  S
O2089      C2100   1.293       .  A
O2089     Cd2092   2.162       .  S
Zn2090     O2101   2.065       .  S
Zn2090     O2103   2.077       .  S
Zn2090     O2095   1.930       .  S
O2091      C2102   1.290       .  A
O2091     Cd2096   2.150       .  S
Cd2092     O2094   2.140       .  S
Cd2092     O2095   1.978       .  S
Cd2093     O2097   2.018       .  S
Cd2093     O2106   2.004       .  S
Cd2093     O2095   1.938       .  S
O2094      C2104   1.285       .  A
O2095     Cd2096   2.006       .  S
Cd2096     O2098   2.130       .  S
O2097      C2104   1.266       .  A
C2099      C2507   1.474       .  S
C2099      O2103   1.281       .  A
C2100      C2107   1.516       .  S
C2102      C2314   1.515       .  S
C2104      C2563   1.479       .  S
C2105      C2532   1.469       .  S
C2105      O2106   1.262       .  A
C2107      C2108   1.425       .  A
C2107      C2112   1.412       .  A
C2108      C2109   1.423       .  A
C2108      H2113   1.083       .  S
C2109      C2110   1.413       .  A
C2110      C2111   1.408       .  A
C2110      H2114   1.083   1_565  S
C2111      C2112   1.415       .  A
C2112      H2115   1.083       .  S
C2116      C2121   1.412       .  A
C2117      H2122   1.083       .  S
C2118      C2119   1.394   1_545  A
C2118      C2591   1.495       .  S
C2119      C2120   1.394       .  A
C2119      H2123   1.084       .  S
C2120      C2121   1.409       .  A
C2120      C2504   1.483       .  S
C2121      H2124   1.083       .  S
O2125      C2141   1.282       .  A
O2125     Zn2131   2.054       .  S
C2126      O2142   1.287       .  A
C2126      O2139   1.288       .  A
O2127      C2140   1.261       .  A
O2127     Cd2134   1.994       .  S
O2128      C2146   1.283       .  A
O2128     Cd2137   2.153       .  S
O2129      C2143   1.283       .  A
O2129     Cd2133   2.079       .  S
O2130      C2141   1.289       .  A
O2130     Cd2133   2.136       .  S
Zn2131     O2142   2.072       .  S
Zn2131     O2144   2.076       .  S
Zn2131     O2136   1.912       .  S
O2132      C2143   1.294       .  A
O2132     Cd2137   2.161       .  S
Cd2133     O2135   2.135   1_556  S
Cd2133     O2136   1.964       .  S
Cd2134     O2138   2.010       .  S
Cd2134     O2147   1.991       .  S
Cd2134     O2136   1.907       .  S
O2135      C2145   1.283   1_554  A
O2136     Cd2137   1.988       .  S
Cd2137     O2139   2.120       .  S
O2138      C2145   1.264       .  A
C2140      C2521   1.459       .  S
C2140      O2144   1.281       .  A
C2141      C2148   1.505       .  S
C2145      C2619   1.473   1_556  S
C2146      C2493   1.478       .  S
C2146      O2147   1.264       .  A
C2148      C2149   1.412   1_556  A
C2148      C2153   1.420       .  A
C2149      H2154   1.083       .  S
C2151      C2152   1.419   1_554  A
C2151      H2155   1.083       .  S
C2152      C2153   1.417       .  A
C2152      C2266   1.513       .  S
C2153      H2156   1.083       .  S
C2157      C2158   1.411       .  A
C2157      C2162   1.408       .  A
C2157      C2476   1.476       .  S
C2158      C2159   1.404       .  A
C2158      H2163   1.084       .  S
C2159      C2160   1.390       .  A
C2159      C2448   1.483       .  S
C2160      C2161   1.394       .  A
C2160      H2164   1.084       .  S
C2161      C2162   1.405       .  A
C2161      C2465   1.479       .  S
C2162      H2165   1.083       .  S
O2166      C2182   1.281       .  A
O2166     Zn2172   2.044       .  S
C2167      C2316   1.510       .  S
C2167      O2183   1.286       .  A
C2167      O2180   1.290       .  A
O2168      C2181   1.260       .  A
O2168     Cd2175   1.996       .  S
O2169      C2187   1.281       .  A
O2169     Cd2178   2.138       .  S
O2170     Cd2174   2.110       .  S
O2171     Cd2174   2.145       .  S
Zn2172     O2183   2.067       .  S
Zn2172     O2185   2.075       .  S
Zn2172     O2177   1.926       .  S
O2173      C2184   1.293       .  A
O2173     Cd2178   2.161       .  S
Cd2174     O2176   2.130       .  S
Cd2175     O2188   1.993       .  S
Cd2175     O2177   1.924       .  S
O2176      C2186   1.282       .  A
O2177     Cd2178   1.998       .  S
Cd2178     O2180   2.132       .  S
O2179      C2186   1.267       .  A
C2181      C2434   1.471       .  S
C2181      O2185   1.280       .  A
C2186      C2420   1.481       .  S
C2187      C2479   1.468       .  S
C2187      O2188   1.262       .  A
C2189      C2190   1.416       .  A
C2189      C2194   1.421       .  A
C2190      C2191   1.416       .  A
C2190      H2195   1.083       .  S
C2191      C2192   1.412       .  A
C2191      C2305   1.511       .  S
C2192      C2193   1.418       .  A
C2192      H2196   1.083       .  S
C2193      C2194   1.416       .  A
C2198      C2199   1.413       .  A
C2198      C2203   1.410       .  A
C2198      C2409   1.484       .  S
C2199      C2200   1.406       .  A
C2199      H2204   1.084       .  S
C2200      C2201   1.391       .  A
C2200      C2392   1.489       .  S
C2201      C2202   1.395       .  A
C2201      H2205   1.083       .  S
C2202      C2203   1.408       .  A
C2202      C2437   1.481       .  S
C2203      H2206   1.083       .  S
O2207      C2223   1.282       .  A
O2207     Zn2213   2.053       .  S
C2208      C2273   1.510       .  S
C2208      O2224   1.287       .  A
C2208      O2221   1.290       .  A
O2209      C2222   1.261       .  A
O2209     Cd2216   1.996       .  S
O2210      C2228   1.282       .  A
O2210     Cd2219   2.149       .  S
O2211      C2225   1.285       .  A
O2212      C2223   1.291       .  A
O2212     Cd2215   2.149       .  S
Zn2213     O2224   2.069       .  S
Zn2213     O2226   2.069       .  S
Zn2213     O2218   1.910       .  S
O2214      C2225   1.294       .  A
O2214     Cd2219   2.164       .  S
Cd2215     O2217   2.129       .  S
Cd2215     O2218   1.964       .  S
Cd2216     O2220   2.015   1_565  S
Cd2216     O2218   1.920       .  S
O2217      C2227   1.285   1_565  A
O2220      C2227   1.267       .  A
C2222      C2462   1.466       .  S
C2222      O2226   1.280       .  A
C2223      C2230   1.510       .  S
C2227      C2381   1.473       .  S
C2228      C2406   1.475       .  S
C2228      O2229   1.262       .  A
C2230      C2231   1.422       .  A
C2230      C2235   1.414       .  A
C2231      C2232   1.418       .  A
C2231      H2236   1.083       .  S
C2232      C2233   1.418       .  A
C2233      C2234   1.412       .  A
C2233      H2237   1.083       .  S
C2234      C2235   1.414       .  A
C2234      C2264   1.509       .  S
C2235      H2238   1.083       .  S
C2239      C2240   1.406       .  A
C2239      C2244   1.411       .  A
C2239      C2367   1.480       .  S
C2240      C2241   1.405       .  A
C2240      H2245   1.083       .  S
C2241      C2242   1.397       .  A
C2241      C2350   1.473       .  S
C2242      C2243   1.392       .  A
C2242      H2246   1.084       .  S
C2243      C2244   1.406       .  A
C2243      C2423   1.490       .  S
C2244      H2247   1.084       .  S
O2248      C2264   1.285       .  A
O2248     Zn2254   2.062       .  S
C2249      C2271   1.506       .  S
C2249      O2265   1.280       .  A
C2249      O2262   1.287       .  A
O2250      C2263   1.264       .  A
O2250     Cd2257   2.012       .  S
O2251      C2269   1.281   1_554  A
O2251     Cd2260   2.117   1_554  S
O2252      C2266   1.293       .  A
O2252     Cd2256   2.161       .  S
O2253      C2264   1.289       .  A
O2253     Cd2256   2.130       .  S
Zn2254     O2265   2.044       .  S
Zn2254     O2267   2.056       .  S
Zn2254     O2259   1.925       .  S
O2255      C2266   1.284       .  A
O2255     Cd2260   2.095       .  S
Cd2256     O2258   2.143       .  S
Cd2256     O2259   2.005       .  S
Cd2257     O2261   1.997       .  S
Cd2257     O2270   2.012       .  S
Cd2257     O2259   1.939       .  S
O2258      C2268   1.281       .  A
O2259     Cd2260   1.978       .  S
Cd2260     O2262   2.136       .  S
O2261      C2268   1.264       .  A
C2263      C2336   1.471       .  S
C2263      O2267   1.278       .  A
C2268      C2364   1.473       .  S
C2269      C2451   1.468   1_556  S
C2269      O2270   1.265       .  A
C2271      C2272   1.417   1_556  A
C2271      C2276   1.419       .  A
C2274      C2275   1.420   1_554  A
C2274      H2278   1.083   1_565  S
C2275      C2276   1.413       .  A
C2276      H2279   1.083       .  S
C2280      C2281   1.406       .  A
C2281      C2282   1.404       .  A
C2281      H2286   1.083       .  S
C2282      C2283   1.398       .  A
C2282      C2339   1.483       .  S
C2283      C2284   1.395   1_565  A
C2283      H2287   1.083       .  S
C2284      C2378   1.486       .  S
C2285      H2288   1.084       .  S
O2289      C2305   1.287       .  A
O2289     Zn2295   2.071       .  S
C2290      C2312   1.513       .  S
C2290      O2306   1.282       .  A
C2290      O2303   1.290       .  A
O2291      C2304   1.259       .  A
O2291     Cd2298   1.983       .  S
O2292      C2310   1.284       .  A
O2292     Cd2301   2.128       .  S
O2293      C2307   1.292       .  A
O2293     Cd2297   2.152       .  S
O2294      C2305   1.292       .  A
O2294     Cd2297   2.139       .  S
Zn2295     O2306   2.059       .  S
Zn2295     O2308   2.071       .  S
Zn2295     O2300   1.929       .  S
O2296      C2307   1.285       .  A
O2296     Cd2301   2.102       .  S
Cd2297     O2299   2.147       .  S
Cd2297     O2300   1.999       .  S
Cd2298     O2302   2.004       .  S
Cd2298     O2311   2.017       .  S
Cd2298     O2300   1.931       .  S
O2299      C2309   1.280       .  A
O2300     Cd2301   1.976       .  S
Cd2301     O2303   2.152       .  S
O2302      C2309   1.261       .  A
C2304      C2353   1.464       .  S
C2304      O2308   1.279       .  A
C2309      C2325   1.473       .  S
C2310      C2395   1.478       .  S
C2310      O2311   1.266       .  A
C2312      C2313   1.422       .  A
C2312      C2317   1.414       .  A
C2313      C2314   1.420       .  A
C2313      H2318   1.083       .  S
C2314      C2315   1.417       .  A
C2315      C2316   1.413       .  A
C2315      H2319   1.083       .  S
C2316      C2317   1.415       .  A
C2317      H2320   1.083       .  S
C2321      C2326   1.407       .  A
C2321      H2328   1.084       .  S
C2322      C2323   1.411       .  A
C2323      C2324   1.403       .  A
C2323      N2330   1.432       .  S
C2324      C2325   1.404       .  A
C2324      H2329   1.084       .  S
C2326      N2327   1.437       .  S
N2327      H2331   1.046       .  S
N2327      H2332   1.045       .  S
N2330      H2333   1.045       .  S
N2330      H2334   1.046       .  S
C2335      C2336   1.404       .  A
C2335      C2340   1.399       .  A
C2335      H2342   1.084       .  S
C2336      C2337   1.408       .  A
C2337      C2338   1.404       .  A
C2337      N2344   1.438       .  S
C2338      C2339   1.409       .  A
C2338      H2343   1.084       .  S
C2339      C2340   1.408       .  A
C2340      N2341   1.432       .  S
N2341      H2345   1.046       .  S
N2341      H2346   1.045       .  S
N2344      H2347   1.045       .  S
N2344      H2348   1.046       .  S
C2349      C2350   1.400       .  A
C2349      C2354   1.399       .  A
C2349      H2356   1.084       .  S
C2350      C2351   1.412       .  A
C2351      C2352   1.401       .  A
C2351      N2358   1.432       .  S
C2352      C2353   1.398       .  A
C2352      H2357   1.084       .  S
C2353      C2354   1.410       .  A
C2354      N2355   1.434       .  S
N2355      H2359   1.046       .  S
N2355      H2360   1.046       .  S
N2358      H2361   1.046       .  S
N2358      H2362   1.046       .  S
C2363      C2364   1.405       .  A
C2363      C2368   1.397       .  A
C2363      H2370   1.085       .  S
C2364      C2365   1.414       .  A
C2365      C2366   1.406       .  A
C2365      N2372   1.432       .  S
C2366      C2367   1.404       .  A
C2366      H2371   1.084       .  S
C2367      C2368   1.407       .  A
C2368      N2369   1.429       .  S
N2369      H2373   1.045       .  S
N2369      H2374   1.045       .  S
N2372      H2375   1.045       .  S
N2372      H2376   1.045       .  S
C2377      C2378   1.401       .  A
C2377      C2382   1.403       .  A
C2377      H2384   1.083       .  S
C2378      C2379   1.421       .  A
C2379      C2380   1.401       .  A
C2380      C2381   1.398       .  A
C2380      H2385   1.084       .  S
C2381      C2382   1.415       .  A
C2382      N2383   1.439       .  S
N2383      H2387   1.046   1_545  S
N2383      H2388   1.045       .  S
C2391      C2392   1.400       .  A
C2391      C2396   1.396       .  A
C2391      H2398   1.084       .  S
C2392      C2393   1.423       .  A
C2393      C2394   1.403       .  A
C2393      N2400   1.438       .  S
C2394      C2395   1.398       .  A
C2394      H2399   1.084       .  S
C2395      C2396   1.420       .  A
C2396      N2397   1.432       .  S
N2397      H2401   1.042       .  S
N2397      H2402   1.045       .  S
N2400      H2403   1.045       .  S
N2400      H2404   1.045       .  S
C2405      C2406   1.405       .  A
C2405      C2410   1.400       .  A
C2405      H2412   1.085       .  S
C2406      C2407   1.410       .  A
C2407      C2408   1.415       .  A
C2407      N2414   1.436       .  S
C2408      C2409   1.408       .  A
C2408      H2413   1.084       .  S
C2409      C2410   1.404       .  A
C2410      N2411   1.433       .  S
N2411      H2415   1.045       .  S
N2411      H2416   1.046       .  S
N2414      H2417   1.045       .  S
N2414      H2418   1.046       .  S
C2419      C2420   1.400       .  A
C2419      C2424   1.405       .  A
C2419      H2426   1.084       .  S
C2420      C2421   1.419       .  A
C2421      C2422   1.395       .  A
C2421      N2428   1.432       .  S
C2422      C2423   1.401       .  A
C2422      H2427   1.084       .  S
C2423      C2424   1.424       .  A
C2424      N2425   1.439       .  S
N2425      H2429   1.044       .  S
N2425      H2430   1.046       .  S
N2428      H2431   1.044       .  S
N2428      H2432   1.044       .  S
C2433      C2434   1.397       .  A
C2433      C2438   1.398       .  A
C2433      H2440   1.084       .  S
C2434      C2435   1.415       .  A
C2435      C2436   1.404       .  A
C2435      N2442   1.439       .  S
C2436      C2437   1.401       .  A
C2436      H2441   1.084       .  S
C2437      C2438   1.422       .  A
C2438      N2439   1.438       .  S
N2439      H2443   1.046       .  S
N2439      H2444   1.045       .  S
N2442      H2445   1.046       .  S
N2442      H2446   1.046       .  S
C2447      C2448   1.413       .  A
C2447      C2452   1.405       .  A
C2447      H2454   1.084       .  S
C2448      C2449   1.412       .  A
C2449      N2456   1.438       .  S
C2450      C2451   1.404       .  A
C2450      H2455   1.085   1_554  S
C2452      N2453   1.437       .  S
N2453      H2457   1.046       .  S
N2456      H2459   1.046       .  S
C2461      C2462   1.395       .  A
C2461      C2466   1.394       .  A
C2461      H2468   1.084       .  S
C2462      C2463   1.414       .  A
C2463      C2464   1.404       .  A
C2463      N2470   1.439       .  S
C2464      C2465   1.402       .  A
C2464      H2469   1.084       .  S
C2465      C2466   1.420       .  A
C2466      N2467   1.436       .  S
N2467      H2471   1.046       .  S
N2467      H2472   1.043       .  S
N2470      H2473   1.046       .  S
N2470      H2474   1.046       .  S
C2475      C2476   1.399       .  A
C2475      C2480   1.404       .  A
C2475      H2482   1.083       .  S
C2476      C2477   1.406       .  A
C2477      C2478   1.403       .  A
C2477      N2484   1.432       .  S
C2478      C2479   1.403       .  A
C2478      H2483   1.084       .  S
C2479      C2480   1.418       .  A
C2480      N2481   1.438       .  S
N2481      H2485   1.046       .  S
N2481      H2486   1.045       .  S
N2484      H2487   1.045       .  S
N2484      H2488   1.046       .  S
C2489      C2490   1.399       .  A
C2489      C2494   1.403       .  A
C2489      H2496   1.084       .  S
C2491      C2492   1.411       .  A
C2491      N2498   1.432       .  S
C2492      H2497   1.084       .  S
C2493      C2494   1.414       .  A
C2494      N2495   1.439       .  S
N2495      H2499   1.046       .  S
N2495      H2500   1.045       .  S
N2498      H2501   1.046       .  S
N2498      H2502   1.045       .  S
C2503      C2504   1.401       .  A
C2503      C2508   1.399       .  A
C2503      H2510   1.084       .  S
C2504      C2505   1.416       .  A
C2505      C2506   1.401       .  A
C2505      N2512   1.433       .  S
C2506      C2507   1.398       .  A
C2506      H2511   1.084       .  S
C2507      C2508   1.419       .  A
C2508      N2509   1.433       .  S
N2509      H2513   1.044       .  S
N2509      H2514   1.046       .  S
N2512      H2515   1.046       .  S
N2512      H2516   1.044       .  S
C2517      C2518   1.401       .  A
C2517      C2522   1.400       .  A
C2517      H2524   1.084   1_455  S
C2518      C2519   1.417       .  A
C2519      C2520   1.398       .  A
C2519      N2526   1.433       .  S
C2520      C2521   1.398       .  A
C2520      H2525   1.084       .  S
C2521      C2522   1.410       .  A
C2522      N2523   1.439       .  S
N2523      H2527   1.046       .  S
N2523      H2528   1.045       .  S
N2526      H2529   1.045       .  S
N2526      H2530   1.044       .  S
C2531      C2532   1.404       .  A
C2531      C2536   1.409       .  A
C2531      H2538   1.084       .  S
C2532      C2533   1.416       .  A
C2533      C2534   1.400       .  A
C2533      N2540   1.439       .  S
C2534      C2535   1.401       .  A
C2534      H2539   1.084       .  S
C2535      C2536   1.409       .  A
C2536      N2537   1.436       .  S
N2537      H2541   1.045       .  S
N2537      H2542   1.045       .  S
N2540      H2543   1.044       .  S
N2540      H2544   1.046       .  S
C2545      C2546   1.414       .  A
C2545      C2550   1.407       .  A
C2545      H2552   1.084       .  S
C2546      C2547   1.412       .  A
C2547      C2548   1.399       .  A
C2547      N2554   1.433   1_455  S
C2548      C2549   1.403       .  A
C2548      H2553   1.085       .  S
C2549      C2550   1.402       .  A
C2550      N2551   1.437       .  S
N2551      H2555   1.046       .  S
N2551      H2556   1.045       .  S
N2554      H2557   1.046   1_655  S
N2554      H2558   1.046       .  S
C2559      C2560   1.401       .  A
C2559      C2564   1.403       .  A
C2559      H2566   1.083       .  S
C2560      C2561   1.417       .  A
C2561      C2562   1.409       .  A
C2561      N2568   1.437       .  S
C2562      C2563   1.400       .  A
C2562      H2567   1.083       .  S
C2563      C2564   1.416       .  A
C2564      N2565   1.439       .  S
N2565      H2569   1.046       .  S
N2565      H2570   1.045       .  S
N2568      H2571   1.045       .  S
N2568      H2572   1.046       .  S
C2573      C2574   1.404       .  A
C2573      C2578   1.409       .  A
C2573      H2580   1.084       .  S
C2574      C2575   1.417       .  A
C2575      C2576   1.401       .  A
C2575      N2582   1.438       .  S
C2576      C2577   1.399       .  A
C2576      H2581   1.083       .  S
C2577      C2578   1.409       .  A
C2578      N2579   1.437       .  S
N2579      H2583   1.046       .  S
N2579      H2584   1.045       .  S
N2582      H2585   1.045       .  S
N2582      H2586   1.046       .  S
C2587      C2588   1.405       .  A
C2587      C2592   1.396       .  A
C2587      H2594   1.085       .  S
C2588      C2589   1.405       .  A
C2589      C2590   1.409       .  A
C2589      N2596   1.437       .  S
C2590      C2591   1.416       .  A
C2590      H2595   1.084       .  S
C2591      C2592   1.416       .  A
C2592      N2593   1.432       .  S
N2593      H2597   1.044       .  S
N2593      H2598   1.045   1_545  S
N2596      H2599   1.045       .  S
N2596      H2600   1.046       .  S
C2601      C2602   1.399       .  A
C2601      C2606   1.396       .  A
C2601      H2608   1.084       .  S
C2602      C2603   1.407       .  A
C2603      C2604   1.400       .  A
C2603      N2610   1.438       .  S
C2604      C2605   1.401       .  A
C2604      H2609   1.084       .  S
C2605      C2606   1.410       .  A
C2606      N2607   1.430       .  S
N2607      H2611   1.045       .  S
N2607      H2612   1.046       .  S
N2610      H2613   1.045       .  S
N2610      H2614   1.046       .  S
C2615      C2616   1.411       .  A
C2615      C2620   1.409       .  A
C2615      H2622   1.084       .  S
C2616      C2617   1.415       .  A
C2617      N2624   1.433       .  S
C2618      C2619   1.403       .  A
C2618      H2623   1.085   1_554  S
C2620      N2621   1.437       .  S
N2621      H2625   1.045       .  S
N2624      H2627   1.046   1_455  S
C2629      C2630   1.402       .  A
C2629      C2634   1.405       .  A
C2629      H2636   1.084   1_455  S
C2630      C2631   1.420       .  A
C2631      C2632   1.400       .  A
C2631      N2638   1.438       .  S
C2632      C2633   1.398       .  A
C2632      H2637   1.084       .  S
C2633      C2634   1.413       .  A
C2634      N2635   1.439       .  S
N2635      H2639   1.046       .  S
N2635      H2640   1.045       .  S
N2638      H2641   1.045       .  S
N2638      H2642   1.045       .  S
C2643      C2644   1.407       .  A
C2643      C2648   1.403       .  A
C2643      H2650   1.085       .  S
C2644      C2645   1.411       .  A
C2645      C2646   1.415       .  A
C2645      N2652   1.437       .  S
C2646      C2647   1.407       .  A
C2646      H2651   1.084       .  S
C2647      C2648   1.406       .  A
C2648      N2649   1.438       .  S
N2649      H2653   1.046       .  S
N2649      H2654   1.044       .  S
N2652      H2655   1.046       .  S
N2652      H2656   1.046       .  S
