geometry optimzed in LAMMPS
_audit_creation_date              2020-11-30 
_audit_creation_method            'lammps2cif' 
_symmetry_space_group_name_H-M    'P1' 
_symmetry_Int_Tables_number       1 
_symmetry_cell_setting            triclinic 
loop_ 
_symmetry_equiv_pos_as_xyz 
  x,y,z 
_cell_length_a                    35.10764059 
_cell_length_b                    35.31494590467286 
_cell_length_c                    35.10001256936666 
_cell_angle_alpha                 89.8393356792039 
_cell_angle_beta                  89.9425236109735 
_cell_angle_gamma                 89.95419605801817 
loop_ 
_atom_site_label 
_atom_site_type_symbol 
_atom_site_fract_x 
_atom_site_fract_y 
_atom_site_fract_z 
_atom_site_charge 
C1          C  0.66517982  0.60961953  0.66269233     0.80100
N2          N  0.67219962  0.62459417  0.62760577    -0.78200
C3          C  0.65660033  0.65832988  0.61654955     0.82500
N4          N  0.63371764  0.67700840  0.64162468    -0.78200
C5          C  0.62610525  0.66240953  0.67677807     0.82600
N6          N  0.64180074  0.62868587  0.68685688    -0.79900
C7          C  0.16135298  0.76405219  0.32721752     0.80100
N8          N  0.17838995  0.79663649  0.31499322    -0.78200
C9          C  0.17193253  0.81065462  0.27944316     0.82500
N10         N  0.14773087  0.79178389  0.25597933    -0.78200
C11         C  0.13067836  0.75913623  0.26726124     0.82600
N12         N  0.13773187  0.74550414  0.30286005    -0.79900
C13         C  0.64566129  0.73089129  0.13960322     0.80100
N14         N  0.63290664  0.74770153  0.17203426    -0.78200
C15         C  0.65468717  0.77321070  0.19108152     0.82500
N16         N  0.68994742  0.78129924  0.17768771    -0.78200
C17         C  0.70281149  0.76549605  0.14499875     0.82600
N18         N  0.68096247  0.73982239  0.12656711    -0.79900
C19         C  0.29766530  0.22250063  0.28131503     0.80100
N20         N  0.26654958  0.23821891  0.29815725    -0.78200
C21         C  0.25608643  0.27428404  0.28966281     0.82500
N22         N  0.27634538  0.29393644  0.26335505    -0.78200
C23         C  0.30688329  0.27851831  0.24548135     0.82600
N24         N  0.31706260  0.24243964  0.25439733    -0.79900
C25         C  0.80669589  0.25665974  0.16805675     0.80100
N26         N  0.79027868  0.28933310  0.17976766    -0.78200
C27         C  0.76589179  0.30880795  0.15697566     0.82500
N28         N  0.75850659  0.29526372  0.12146864    -0.78200
C29         C  0.77477269  0.26239047  0.10888952     0.82600
N30         N  0.79871459  0.24333703  0.13265626    -0.79900
C31         C  0.76298930  0.15609564  0.69917646     0.80100
N32         N  0.78248070  0.18596702  0.68464603    -0.78200
C33         C  0.77023203  0.20413121  0.65292667     0.82500
N34         N  0.73738928  0.19277274  0.63606459    -0.78200
C35         C  0.71759948  0.16283075  0.65005434     0.82600
N36         N  0.73027099  0.14501798  0.68202943    -0.79900
C37         C  0.19619095  0.67504260  0.78591713     0.80100
N38         N  0.17525450  0.70425520  0.79980041    -0.78200
C39         C  0.14129547  0.71360849  0.78356172     0.82500
N40         N  0.12953628  0.69430096  0.75224414    -0.78200
C41         C  0.15041645  0.66520144  0.73809236     0.82600
N42         N  0.18380983  0.65607550  0.75483621    -0.79900
O43         O  0.07882779  0.99983523  0.09740629    -0.88500
C44         C  0.06923271  0.98428089  0.98126607     0.87600
Mg45       Mg  0.02722453  0.00556371  0.12675495     1.58100
O46         O  0.10115400  0.07514000  0.00632859    -0.88200
O47         O  0.12893644  0.03231055  0.07931454    -0.75500
C48         C  0.91703486  0.12725499  0.03004692     0.92600
O49         O  0.01530741  0.95312137  0.04975455    -0.75300
O50         O  0.91281105  0.10390369  0.05779843    -0.82900
Mg51       Mg  0.08052372  0.95214564  0.06043508     1.58000
C52         C  0.05138605  0.16622667  0.96907676     0.92500
O53         O  0.14816860  0.95395975  0.07368495    -0.81100
H54         H  0.13423158  0.10987671  0.03672499    -0.06500
C55         C  0.98752656  0.05933670  0.98180773     0.87500
O56         O  0.03469888  0.07111959  0.12500095    -0.75600
O57         O  0.08438349  0.99241524  0.01212536    -0.88400
O58         O  0.07727764  0.14300220  0.95822542    -0.81200
C59         C  0.14229149  0.03559508  0.91886073     0.92600
C60         C  0.17259055  0.96640463  0.04953910     0.92500
Mg61       Mg  0.01263373  0.12546640  0.02568228     1.58000
O62         O  0.94958249  0.13353549  0.01575989    -0.81100
O63         O  0.07812272  0.12416495  0.03696257    -0.75400
O64         O  0.14585493  0.02008710  0.95115068    -0.81200
O65         O  0.06637020  0.90790899  0.10980292    -0.82900
O66         O  0.95480824  0.06556182  0.13872455    -0.81200
C67         C  0.10590841  0.10315689  0.02692215     0.86900
O68         O  0.00460175  0.09222402  0.07441301    -0.88400
O69         O  0.01658503  0.07640206  0.99221849    -0.88500
O70         O  0.96211232  0.04857174  0.00552067    -0.75500
Mg71       Mg  0.13390330  0.02580678  0.01344802     1.58000
O72         O  0.11982752  0.06394285  0.91413925    -0.82900
H73         H  0.11171563  0.02769268  0.13445467    -0.06600
O74         O  0.99724891  0.00715643  0.07493140    -0.88200
H75         H  0.96042543  0.97160978  0.05023161    -0.06500
H76         H  0.03153308  0.12679733  0.11053322    -0.06600
C77         C  0.98956075  0.97728999  0.05806416     0.86900
C78         C  0.10654001  0.02005127  0.10513873     0.87500
C79         C  0.02370464  0.09808786  0.10344975     0.87500
H80         H  0.98369691  0.05328434  0.95184854    -0.06600
O81         O  0.06064398  0.00963357  0.95667459    -0.75600
Mg82       Mg  0.95692142  0.05514144  0.07110013     1.58000
H83         H  0.06312070  0.95494958  0.97503238    -0.06600
C84         C  0.03674569  0.91130258  0.13111118     0.92500
O85         O  0.97003497  0.00744207  0.15100364    -0.82900
C86         C  0.96689378  0.04068593  0.16232645     0.92600
O87         O  0.16216646  0.97082462  0.01592606    -0.82900
Mg88       Mg  0.06761704  0.07510627  0.95566360     1.58200
O89         O  0.02056486  0.94301685  0.13536627    -0.81200
O90         O  0.01790491  0.15460960  0.97115661    -0.82900
C91         C  0.10055819  0.25862498  0.99399557     0.03000
C92         C  0.07246258  0.27682710  0.01660818    -0.13100
C93         C  0.03788069  0.25814791  0.02528919     0.00500
C94         C  0.03220538  0.22153953  0.01020034    -0.11700
C95         C  0.05958908  0.20368181  0.98664522     0.03000
C96         C  0.09361142  0.22215340  0.97954926    -0.11100
H97         H  0.07632567  0.30611472  0.02485558     0.08600
H98         H  0.00501722  0.20784623  0.01512412     0.06100
H99         H  0.11388609  0.20899728  0.96036250     0.06000
C100        C  0.99959604  0.09584477  0.24873544     0.03000
C101        C  0.98335247  0.08672184  0.21343213    -0.13100
C102        C  0.98631578  0.05059404  0.19863235     0.00500
C103        C  0.00870139  0.02356610  0.21834325    -0.11700
C104        C  0.02630391  0.03169011  0.25363771     0.03000
C105        C  0.02079645  0.06825631  0.26923529    -0.11100
H106        H  0.96596992  0.10744828  0.19854623     0.08600
H107        H  0.01090116  0.99504582  0.20722757     0.06100
H108        H  0.03048393  0.07435858  0.29784906     0.06000
C109        C  0.25858850  0.99551767  0.10762858     0.03000
C110        C  0.22385772  0.97920407  0.09682236    -0.13100
C111        C  0.20967190  0.98370812  0.06042792     0.00500
C112        C  0.23048631  0.00620301  0.03420768    -0.11700
C113        C  0.26568891  0.02328308  0.04374018     0.03000
C114        C  0.27975202  0.01772360  0.08120281    -0.11100
H115        H  0.20813463  0.96187163  0.11698948     0.08600
H116        H  0.22012496  0.00921661  0.00526434     0.06100
H117        H  0.30758154  0.02839596  0.08893653     0.06000
O118        O  0.89765721  0.56241360  0.46628155    -0.88500
C119        C  0.81246831  0.54395761  0.39507113     0.87600
Mg120      Mg  0.94403887  0.59659524  0.44898284     1.58100
O121        O  0.87528717  0.46576019  0.40165617    -0.88200
O122        O  0.89191116  0.50252459  0.48297325    -0.75500
C123        C  0.97095049  0.54621257  0.26862989     0.92600
O124        O  0.86216758  0.61567044  0.40162134    -0.75300
O125        O  0.98623122  0.57301147  0.28811286    -0.82900
Mg126      Mg  0.84216377  0.58637341  0.45676628     1.58000
C127        C  0.91454112  0.41189618  0.30423481     0.92500
O128        O  0.81563511  0.55799956  0.51391575    -0.81100
H129        H  0.90313806  0.42808051  0.43391585    -0.06500
C130        C  0.88583677  0.53540327  0.31385437     0.87500
O131        O  0.97980934  0.54446875  0.43403627    -0.75600
O132        O  0.83169020  0.53750833  0.42395508    -0.88400
O133        O  0.88138171  0.41573106  0.31979105    -0.81200
C134        C  0.77210485  0.45605588  0.38876012     0.92600
C135        C  0.80114432  0.52506000  0.52045144     0.92500
Mg136      Mg  0.95152393  0.48716480  0.34015502     1.58000
O137        O  0.96035010  0.51605772  0.28467717    -0.81100
O138        O  0.93621477  0.45298681  0.39359510    -0.75400
O139        O  0.78711709  0.46890445  0.41864252    -0.81200
O140        O  0.85581447  0.64474581  0.48365660    -0.82900
O141        O  0.01350945  0.61740396  0.37619036    -0.81200
C142        C  0.90440183  0.44767046  0.41028802     0.86900
O143        O  0.96669858  0.53495564  0.37334600    -0.88400
O144        O  0.89503020  0.50732380  0.33305237    -0.88500
O145        O  0.90371793  0.56667108  0.31584861    -0.75500
Mg146      Mg  0.84049856  0.48299463  0.44840495     1.58000
O147        O  0.79262211  0.44085187  0.36256857    -0.82900
H148        H  0.92920243  0.53887682  0.50738418    -0.06600
O149        O  0.92252169  0.60145664  0.39278377    -0.88200
H150        H  0.89413588  0.63678955  0.35837644    -0.06500
H151        H  0.00610901  0.50493099  0.40142222    -0.06600
C152        C  0.89335007  0.61893227  0.38347583     0.86900
C153        C  0.90665728  0.53521582  0.48690339     0.87500
C154        C  0.98550857  0.52767634  0.40244131     0.87500
H155        H  0.86133384  0.53352555  0.29540490    -0.06600
O156        O  0.81595060  0.52451408  0.36482681    -0.75600
Mg157      Mg  0.95766944  0.58887045  0.34595886     1.58000
H158        H  0.79273457  0.56744282  0.39526714    -0.06600
C159        C  0.88181365  0.66528306  0.46818544     0.92500
O160        O  0.99307591  0.63103524  0.43492027    -0.82900
C161        C  0.01778042  0.63347932  0.40897442     0.92600
O162        O  0.80483455  0.49788399  0.49740992    -0.82900
Mg163      Mg  0.84901958  0.47124297  0.34611429     1.58200
O164        O  0.91294220  0.65086134  0.45755512    -0.81200
O165        O  0.93972495  0.43716253  0.30657780    -0.82900
C166        C  0.68381186  0.48597064  0.33554834     0.03000
C167        C  0.66479446  0.50914185  0.36258532    -0.13100
C168        C  0.67898568  0.51155591  0.40025255     0.00500
C169        C  0.71277730  0.49130648  0.40910576    -0.11700
C170        C  0.73206517  0.46857634  0.38199780     0.03000
C171        C  0.71654799  0.46560924  0.34593943    -0.11100
H172        H  0.63855207  0.52337065  0.35495665     0.08600
H173        H  0.72408002  0.49336619  0.43776449     0.06100
H174        H  0.73116915  0.44866980  0.32478561     0.06000
C175        C  0.94897984  0.59353878  0.17418303     0.03000
C176        C  0.96485898  0.58543646  0.20991180    -0.13100
C177        C  0.95768694  0.55159610  0.22842888     0.00500
C178        C  0.93312602  0.52502842  0.21040972    -0.11700
C179        C  0.91619469  0.53200555  0.17420041     0.03000
C180        C  0.92490520  0.56684103  0.15595646    -0.11100
H181        H  0.98333523  0.60606428  0.22340992     0.08600
H182        H  0.92767305  0.49807272  0.22420182     0.06100
H183        H  0.91492237  0.57225417  0.12727383     0.06000
C184        C  0.82608368  0.75084442  0.43565907     0.03000
C185        C  0.83720901  0.71849918  0.45602673    -0.13100
C186        C  0.87391771  0.70444266  0.45399980     0.00500
C187        C  0.90092024  0.72450477  0.43167307    -0.11700
C188        C  0.89158102  0.75813979  0.41136349     0.03000
C189        C  0.85323491  0.77108939  0.41324629    -0.11100
H190        H  0.81619395  0.70317651  0.47264623     0.08600
H191        H  0.92992208  0.71405786  0.43021842     0.06100
H192        H  0.84509465  0.79717893  0.39915882     0.06000
O193        O  0.04816073  0.85769052  0.44790035    -0.88500
C194        C  0.13439297  0.86628828  0.37569072     0.87600
Mg195      Mg  0.00094429  0.82211438  0.43410337     1.58100
O196        O  0.07667588  0.94754759  0.37593691    -0.88200
O197        O  0.05801611  0.91835530  0.45921413    -0.75500
C198        C  0.97330034  0.86229134  0.24955874     0.92600
O199        O  0.08238730  0.79835681  0.38944381    -0.75300
O200        O  0.95889151  0.83565992  0.27024189    -0.82900
Mg201      Mg  0.10334295  0.83188887  0.44217840     1.58000
C202        C  0.03767610  0.99824932  0.27753666     0.92500
O203        O  0.12820675  0.86594383  0.49753337    -0.81100
H204        H  0.05029437  0.98754695  0.40637822    -0.06500
C205        C  0.06063237  0.87210306  0.29442321     0.87500
O206        O  0.96543635  0.87321530  0.41481666    -0.75600
O207        O  0.11614106  0.87641329  0.40419003    -0.88400
O208        O  0.07113080  0.99312367  0.29217942    -0.81200
C209        C  0.18151430  0.95102340  0.36069463     0.92600
C210        C  0.14491707  0.89833688  0.50111098     0.92500
Mg211      Mg  0.99760465  0.92471928  0.31805665     1.58000
O212        O  0.98563079  0.89232065  0.26472531    -0.81100
O213        O  0.01557854  0.96071796  0.36903931    -0.75400
O214        O  0.16548017  0.94106190  0.39138835    -0.81200
O215        O  0.08967104  0.77636303  0.47492230    -0.82900
O216        O  0.92901905  0.79630942  0.36398500    -0.81200
C217        C  0.04804989  0.96661345  0.38411525     0.86900
O218        O  0.97994627  0.87890479  0.35395509    -0.88400
O219        O  0.05318556  0.90205383  0.31130159    -0.88500
O220        O  0.04110165  0.84201378  0.29892654    -0.75500
Mg221      Mg  0.11094476  0.93278649  0.42333636     1.58000
O222        O  0.16171780  0.96420542  0.33281183    -0.82900
H223        H  0.01712058  0.88708455  0.48547133    -0.06600
O224        O  0.02203265  0.81228665  0.37840678    -0.88200
H225        H  0.05100578  0.77475297  0.34720714    -0.06500
H226        H  0.94027442  0.91100030  0.37911985    -0.06600
C227        C  0.05143644  0.79418533  0.37089863     0.86900
C228        C  0.04048219  0.88729784  0.46537549     0.87500
C229        C  0.96064054  0.88820411  0.38209274     0.87500
H230        H  0.08517183  0.87125807  0.27569414    -0.06600
O231        O  0.13166417  0.88324590  0.34373593    -0.75600
Mg232      Mg  0.98646490  0.82275888  0.33060611     1.58000
H233        H  0.15257707  0.84172657  0.37783361    -0.06600
C234        C  0.06392571  0.75477343  0.46094204     0.92500
O235        O  0.95003373  0.78672459  0.42331667    -0.82900
C236        C  0.92478381  0.78213723  0.39797905     0.92600
O237        O  0.14582751  0.92216195  0.47422449    -0.82900
Mg238      Mg  0.10158740  0.93690622  0.32082002     1.58200
O239        O  0.03329404  0.76854173  0.44774707    -0.81200
O240        O  0.01132587  0.97418807  0.28194754    -0.82900
C241        C  0.09804539  0.65332395  0.47391241     0.03000
C242        C  0.09587106  0.69291224  0.47719352    -0.13100
C243        C  0.07019945  0.71340527  0.45489292     0.00500
C244        C  0.04861160  0.69382461  0.42696029    -0.11700
C245        C  0.05214771  0.65436612  0.42150541     0.03000
C246        C  0.07783149  0.63453020  0.44496325    -0.11100
H247        H  0.11085291  0.70708010  0.50010381     0.08600
H248        H  0.02684848  0.70880596  0.41105417     0.06100
H249        H  0.07733740  0.60382110  0.44500553     0.06000
C250        C  0.28694236  0.95674616  0.33483421     0.03000
C251        C  0.24736178  0.96297620  0.33410071    -0.13100
C252        C  0.22324142  0.94229350  0.35786744     0.00500
C253        C  0.23969050  0.91430461  0.38215013    -0.11700
C254        C  0.27929976  0.90679256  0.38232905     0.03000
C255        C  0.30232567  0.92703619  0.35671601    -0.11100
H256        H  0.23599913  0.98689178  0.31840724     0.08600
H257        H  0.22209720  0.90017547  0.40321251     0.06100
H258        H  0.33301146  0.92428081  0.35868122     0.06000
C259        C  0.96333501  0.83594660  0.14463280     0.03000
C260        C  0.99376425  0.85583501  0.12793998    -0.13100
C261        C  0.01726153  0.87888414  0.15023585     0.00500
C262        C  0.01025227  0.88021175  0.19000929    -0.11700
C263        C  0.98069325  0.85857994  0.20757432     0.03000
C264        C  0.95798342  0.83596322  0.18439256    -0.11100
H265        H  0.99605520  0.85704411  0.09715979     0.08600
H266        H  0.02683851  0.89973445  0.20700919     0.06100
H267        H  0.93402064  0.82094227  0.19675557     0.06000
O268        O  0.59868441  0.35667004  0.93110285    -0.88500
C269        C  0.48345052  0.36926591  0.95025444     0.87600
Mg270      Mg  0.62920532  0.40730369  0.92464706     1.58100
O271        O  0.50515500  0.33447812  0.85925196    -0.88200
O272        O  0.57849291  0.30677072  0.89994891    -0.75500
C273        C  0.53026567  0.51535096  0.80220590     0.92600
O274        O  0.55356665  0.42125933  0.97861631    -0.75300
O275        O  0.55915977  0.52052373  0.82407488    -0.82900
Mg276      Mg  0.56284303  0.35607012  0.98003516     1.58000
C277        C  0.46839527  0.38218994  0.76847889     0.92500
O278        O  0.57516337  0.28891565  0.97813100    -0.81100
H279        H  0.53511258  0.30027522  0.82505006    -0.06500
C280        C  0.48431239  0.44846458  0.87332601     0.87500
O281        O  0.62670290  0.39940258  0.85867970    -0.75600
O282        O  0.51361997  0.35331519  0.94117249    -0.88400
O283        O  0.45678372  0.35738009  0.79240984    -0.81200
C284        C  0.41764615  0.29842289  0.90251882     0.92600
C285        C  0.55008815  0.26539779  0.96644286     0.92500
Mg286      Mg  0.52605738  0.42081580  0.80652926     1.58000
O287        O  0.51631928  0.48273034  0.79748449    -0.81100
O288        O  0.53650660  0.35577281  0.80947667    -0.75400
O289        O  0.45004815  0.29410088  0.91762326    -0.81200
O290        O  0.61300699  0.36821377  0.02298856    -0.82900
O291        O  0.64214799  0.47796340  0.86306568    -0.81200
C292        C  0.52574116  0.32882662  0.83116148     0.86900
O293        O  0.57584563  0.42926350  0.83815683    -0.88400
O294        O  0.49391709  0.41887532  0.85687863    -0.88500
O295        O  0.50860365  0.47366205  0.88268776    -0.75500
Mg296      Mg  0.51262476  0.30320634  0.90927488     1.58000
O297        O  0.41316683  0.31955868  0.87309496    -0.82900
H298        H  0.63398183  0.32304366  0.90185654    -0.06600
O299        O  0.57809684  0.43832349  0.92350685    -0.88200
H300        H  0.55459254  0.47568470  0.95939523    -0.06500
H301        H  0.61139538  0.40221124  0.80290731    -0.06600
C302        C  0.56184298  0.44650179  0.95381467     0.86900
C303        C  0.60514860  0.32878933  0.91074167     0.87500
C304        C  0.60474813  0.41015502  0.83183530     0.87500
H305        H  0.45458359  0.45296380  0.88002782    -0.06600
O306        O  0.45823729  0.37802016  0.92554860    -0.75600
Mg307      Mg  0.57402364  0.47754626  0.87434381     1.58000
H308        H  0.47837316  0.37596913  0.97995519    -0.06600
C309        C  0.63421746  0.39759152  0.01954272     0.92500
O310        O  0.65456362  0.46382962  0.92181732    -0.82900
C311        C  0.66579312  0.46604178  0.88821040     0.92600
O312        O  0.51635028  0.27621567  0.96523821    -0.82900
Mg313      Mg  0.45575339  0.36951284  0.85998114     1.58200
O314        O  0.63827958  0.41407009  0.98771479    -0.81200
O315        O  0.47051393  0.41572359  0.77926550    -0.82900
C316        C  0.49885882  0.32882004  0.67962245     0.03000
C317        C  0.52185836  0.35609302  0.66081913    -0.13100
C318        C  0.52801517  0.39189391  0.67757280     0.00500
C319        C  0.51080098  0.39937303  0.71313948    -0.11700
C320        C  0.48759801  0.37246151  0.73193607     0.03000
C321        C  0.48292802  0.33717325  0.71546836    -0.11100
H322        H  0.53208852  0.35067819  0.63224173     0.08600
H323        H  0.51390755  0.42745246  0.72515937     0.06100
H324        H  0.46455504  0.31684497  0.72952890     0.06000
C325        C  0.60687838  0.18514128  0.92274709     0.03000
C326        C  0.59714380  0.21818436  0.94257317    -0.13100
C327        C  0.55982167  0.23034433  0.94495279     0.00500
C328        C  0.53161038  0.20995328  0.92490133    -0.11700
C329        C  0.54004255  0.17662876  0.90408946     0.03000
C330        C  0.57838500  0.16396880  0.90349285    -0.11100
H331        H  0.61882280  0.23358883  0.95786370     0.08600
H332        H  0.50220971  0.21921049  0.92663277     0.06100
H333        H  0.58551890  0.13704261  0.89062284     0.06000
C334        C  0.74708366  0.42322144  0.83133377     0.03000
C335        C  0.71402196  0.44328568  0.84122917    -0.13100
C336        C  0.70152499  0.44516332  0.87852298     0.00500
C337        C  0.72205918  0.42491681  0.90673595    -0.11700
C338        C  0.75533734  0.40371531  0.89824096     0.03000
C339        C  0.76782531  0.40301019  0.85975229    -0.11100
H340        H  0.69862749  0.45894292  0.81957447     0.08600
H341        H  0.71270782  0.42643686  0.93613344     0.06100
H342        H  0.79436686  0.38917507  0.85246876     0.06000
O343        O  0.85699296  0.44564616  0.05380250    -0.88500
C344        C  0.87040665  0.37279244  0.13923091     0.87600
Mg345      Mg  0.82086904  0.43015567  0.00693474     1.58100
O346        O  0.94946364  0.37561605  0.07791125    -0.88200
O347        O  0.91800258  0.45807338  0.06180184    -0.75500
C348        C  0.86430529  0.24790092  0.97541464     0.92600
O349        O  0.79961303  0.38622142  0.08920517    -0.75300
O350        O  0.83650417  0.26842986  0.96329252    -0.82900
Mg351      Mg  0.83276197  0.43929770  0.11010406     1.58000
C352        C  0.00300707  0.27956145  0.03721096     0.92500
O353        O  0.86794631  0.49514072  0.13692518    -0.81100
H354        H  0.98835533  0.40690822  0.05052949    -0.06500
C355        C  0.87620378  0.29210811  0.06467078     0.87500
O356        O  0.87192674  0.41206862  0.97050028    -0.75600
O357        O  0.87903117  0.40207129  0.12153186    -0.88400
O358        O  0.99828796  0.29469216  0.07038721    -0.81200
C359        C  0.96043323  0.35963098  0.18193150     0.92600
C360        C  0.90149109  0.49820816  0.15236408     0.92500
Mg361      Mg  0.92649034  0.31675506  0.99975735     1.58000
O362        O  0.89466619  0.26304407  0.98746593    -0.81100
O363        O  0.96203554  0.36839851  0.01679027    -0.75400
O364        O  0.94762631  0.38992826  0.16751639    -0.81200
O365        O  0.77387211  0.46957287  0.09711582    -0.82900
O366        O  0.79513256  0.35886235  0.93611933    -0.81200
C367        C  0.96789381  0.38409666  0.04889997     0.86900
O368        O  0.87918238  0.35150733  0.98406907    -0.88400
O369        O  0.90559346  0.30959325  0.05600180    -0.88500
O370        O  0.84510637  0.29584848  0.04636805    -0.75500
Mg371      Mg  0.93533249  0.42200209  0.11359310     1.58000
O372        O  0.97291944  0.33285272  0.16063991    -0.82900
H373        H  0.88474880  0.48402544  0.02232487    -0.06600
O374        O  0.81294050  0.37465921  0.02878542    -0.88200
H375        H  0.77574322  0.34376381  0.05866289    -0.06500
H376        H  0.90997412  0.37778721  0.94398588    -0.06600
C377        C  0.79518857  0.36733326  0.05854820     0.86900
C378        C  0.88612078  0.46377977  0.04535963     0.87500
C379        C  0.88747863  0.37994095  0.96489857     0.87500
H380        H  0.87676057  0.27371006  0.08940308    -0.06600
O381        O  0.88855079  0.34174412  0.13523975    -0.75600
Mg382      Mg  0.82345924  0.32714983  0.99262708     1.58000
H383        H  0.84611610  0.37341890  0.15817682    -0.06600
C384        C  0.75283190  0.45631680  0.07023378     0.92500
O385        O  0.78424468  0.41773494  0.95649702    -0.82900
C386        C  0.77990116  0.39204298  0.93166598     0.92600
O387        O  0.92570615  0.47187826  0.14971337    -0.82900
Mg388      Mg  0.94209475  0.32052987  0.10287955     1.58200
O389        O  0.76771326  0.44354423  0.03997935    -0.81200
O390        O  0.97761970  0.28175927  0.01168558    -0.82900
C391        C  0.64731859  0.47252488  0.09261989     0.03000
C392        C  0.63052071  0.44201694  0.07328238    -0.13100
C393        C  0.65276460  0.41665286  0.05234314     0.00500
C394        C  0.69270351  0.42140242  0.05270587    -0.11700
C395        C  0.71055347  0.45090750  0.07375904     0.03000
C396        C  0.68738471  0.47585410  0.09430757    -0.11100
H397        H  0.59978424  0.44120831  0.07022502     0.08600
H398        H  0.70973039  0.40323554  0.03459056     0.06100
H399        H  0.70020336  0.50004512  0.10821077     0.06000
C400        C  0.98686914  0.33899624  0.28452752     0.03000
C401        C  0.98594329  0.33697038  0.24462373    -0.13100
C402        C  0.95790874  0.35622904  0.22420540     0.00500
C403        C  0.92927555  0.37638813  0.24461005    -0.10100
C404        C  0.92870648  0.37729629  0.28488433     0.03000
C405        C  0.95745361  0.35736030  0.30444183    -0.11100
H406        H  0.00927845  0.32367020  0.22942911     0.08600
H407        H  0.90927542  0.39406196  0.22916722     0.06100
H408        H  0.96028295  0.36096891  0.33498775     0.06000
C409        C  0.83767289  0.14418992  0.96020331     0.03000
C410        C  0.85962908  0.12605791  0.98840998    -0.13100
C411        C  0.88453761  0.14702757  0.01128681     0.00500
C412        C  0.88572915  0.18675783  0.00631416    -0.11700
C413        C  0.86176315  0.20575460  0.97975449     0.03000
C414        C  0.83738348  0.18400080  0.95733672    -0.11100
H415        H  0.86091509  0.09539527  0.98910179     0.08600
H416        H  0.90627195  0.20277463  0.02271778     0.06100
H417        H  0.82075905  0.19769996  0.93525564     0.06000
O418        O  0.38773604  0.07664145  0.95509180    -0.88500
C419        C  0.30215264  0.05794369  0.88428302     0.87600
Mg420      Mg  0.43340586  0.11206165  0.93615472     1.58100
O421        O  0.36600255  0.98099629  0.88856506    -0.88200
O422        O  0.38294072  0.01624489  0.97039556    -0.75500
C423        C  0.45779894  0.06588910  0.75300161     0.92600
O424        O  0.35003144  0.13082325  0.89316130    -0.75300
O425        O  0.47113965  0.09395265  0.77206206    -0.82900
Mg426      Mg  0.33110192  0.09964414  0.94804648     1.58000
C427        C  0.40614403  0.92668639  0.79035656     0.92500
O428        O  0.30438625  0.06846467  0.00545668    -0.81100
H429        H  0.39595173  0.94414850  0.91987857    -0.06500
C430        C  0.37320145  0.05144661  0.80124890     0.87500
O431        O  0.46960795  0.06107139  0.91862281    -0.75600
O432        O  0.32104923  0.05137043  0.91344030    -0.88400
O433        O  0.37353274  0.92988419  0.80749345    -0.81200
C434        C  0.26159068  0.96936627  0.87604961     0.92600
C435        C  0.29063780  0.03482595  0.01085124     0.92500
Mg436      Mg  0.44077491  0.00456484  0.82469396     1.58000
O437        O  0.44830201  0.03557216  0.76969242    -0.81100
O438        O  0.42698531  0.96966057  0.87833197    -0.75400
O439        O  0.27679728  0.98264453  0.90579757    -0.81200
O440        O  0.34367853  0.15875905  0.97604265    -0.82900
O441        O  0.50138530  0.13639870  0.86087756    -0.81200
C442        C  0.39590437  0.96372748  0.89625100     0.86900
O443        O  0.45549017  0.05251655  0.85800607    -0.88400
O444        O  0.38377529  0.02304883  0.81930475    -0.88500
O445        O  0.39017860  0.08323697  0.80361348    -0.75500
Mg446      Mg  0.33114830  0.99640431  0.93618592     1.58000
O447        O  0.28223245  0.95455725  0.84970327    -0.82900
H448        H  0.42066520  0.05235281  0.99474850    -0.06600
O449        O  0.41012573  0.11769417  0.88081326    -0.88200
H450        H  0.37951341  0.15350125  0.84890902    -0.06500
H451        H  0.49613099  0.02288249  0.88463752    -0.06600
C452        C  0.38022917  0.13492400  0.87345802     0.86900
C453        C  0.39756208  0.04897533  0.97467816     0.87500
C454        C  0.47505344  0.04511191  0.88655308     0.87500
H455        H  0.34816287  0.04939447  0.78358022    -0.06600
O456        O  0.30575328  0.03858523  0.85387740    -0.75600
Mg457      Mg  0.44446562  0.10693079  0.83216493     1.58000
H458        H  0.28233237  0.08142194  0.88443869    -0.06600
C459        C  0.37024652  0.17967809  0.96203885     0.92500
O460        O  0.48278456  0.14786079  0.92059608    -0.82900
C461        C  0.50667978  0.15194708  0.89382231     0.92600
O462        O  0.29610396  0.00861699  0.98695492    -0.82900
Mg463      Mg  0.33908794  0.98558405  0.83353323     1.58200
O464        O  0.40049368  0.16517273  0.94880299    -0.81200
O465        O  0.43015881  0.95332999  0.79058775    -0.82900
C466        C  0.46016108  0.09244417  0.64772426     0.03000
C467        C  0.46656374  0.09366184  0.68725626    -0.13100
C468        C  0.44828866  0.06813357  0.71145480     0.00500
C469        C  0.42139229  0.04249750  0.69545726    -0.11700
C470        C  0.41317773  0.04207570  0.65601920     0.03000
C471        C  0.43229669  0.06817237  0.63255995    -0.11100
H472        H  0.48872557  0.11175903  0.69859151     0.08600
H473        H  0.40873149  0.02075695  0.71323438     0.06100
H474        H  0.43003517  0.06548970  0.60185775     0.06000
C475        C  0.34887037  0.28340692  0.98200252     0.03000
C476        C  0.34757261  0.24358586  0.98421539    -0.13100
C477        C  0.36634868  0.22152320  0.95720935     0.00500
C478        C  0.38542792  0.24000429  0.92664549    -0.11700
C479        C  0.38575938  0.27983642  0.92310407     0.03000
C480        C  0.36675605  0.30120164  0.95084904    -0.11100
H481        H  0.33534889  0.22988686  0.00902775     0.08600
H482        H  0.40230245  0.22350997  0.90684555     0.06100
H483        H  0.36989919  0.33175167  0.95082304     0.06000
C484        C  0.15922436  0.96729425  0.83902380     0.03000
C485        C  0.14283612  0.99778103  0.85917787    -0.13100
C486        C  0.16354924  0.01678908  0.88730718     0.00500
C487        C  0.20217492  0.00661814  0.89278565    -0.11700
C488        C  0.22000030  0.97767685  0.87097861     0.03000
C489        C  0.19798051  0.95810944  0.84458032    -0.11100
H490        H  0.11262777  0.00345836  0.85639676     0.08600
H491        H  0.21795372  0.02061163  0.91521269     0.06100
H492        H  0.21046604  0.93394643  0.83035562     0.06000
O493        O  0.58012656  0.47598456  0.55631341    -0.88500
C494        C  0.56298762  0.55020309  0.63960582     0.87600
Mg495      Mg  0.61572497  0.48995567  0.50945340     1.58100
O496        O  0.48448551  0.54464461  0.57689505    -0.88200
O497        O  0.51918086  0.46247235  0.56292841    -0.75500
C498        C  0.57294103  0.67051720  0.47628612     0.92600
O499        O  0.63559625  0.53876503  0.59018255    -0.75300
O500        O  0.59971415  0.64984404  0.46240353    -0.82900
Mg501      Mg  0.60394595  0.48580737  0.61200809     1.58000
C502        C  0.43327584  0.64192110  0.53281257     0.92500
O503        O  0.57271504  0.43028091  0.63948841    -0.81100
H504        H  0.44639596  0.51283433  0.54917629    -0.06500
C505        C  0.55882430  0.62726411  0.56381903     0.87500
O506        O  0.56449169  0.50607486  0.47243286    -0.75600
O507        O  0.55589960  0.52112254  0.62121798    -0.88400
O508        O  0.43607598  0.62692198  0.56640348    -0.81200
C509        C  0.47258638  0.56169637  0.68057953     0.92600
C510        C  0.53936276  0.42551384  0.65431193     0.92500
Mg511      Mg  0.50982595  0.60227467  0.49840545     1.58000
O512        O  0.54226391  0.65574469  0.48786885    -0.81100
O513        O  0.47349337  0.55096150  0.51529579    -0.75400
O514        O  0.48606299  0.53160675  0.66637007    -0.81200
O515        O  0.66284032  0.45693976  0.60099727    -0.82900
O516        O  0.64049771  0.55864009  0.43656454    -0.81200
C517        C  0.46686382  0.53567108  0.54758444     0.86900
O518        O  0.55697958  0.56692441  0.48426044    -0.88400
O519        O  0.52933879  0.61002548  0.55489207    -0.88500
O520        O  0.59009362  0.62346600  0.54566640    -0.75500
Mg521      Mg  0.50037203  0.49891794  0.61342509     1.58000
O522        O  0.45961560  0.58822706  0.65898983    -0.82900
H523        H  0.55430603  0.43582415  0.52576869    -0.06600
O524        O  0.62300271  0.54599208  0.52907467    -0.88200
H525        H  0.65914025  0.57948026  0.55703738    -0.06500
H526        H  0.52640222  0.53959859  0.44496680    -0.06600
C527        C  0.64029604  0.55551193  0.55834919     0.86900
C528        C  0.55173983  0.45677267  0.54791812     0.87500
C529        C  0.54882427  0.53801563  0.46589088     0.87500
H530        H  0.55813699  0.64550691  0.58830997    -0.06600
O531        O  0.54401498  0.58066190  0.63532380    -0.75600
Mg532      Mg  0.61235771  0.59182325  0.49224973     1.58000
H533        H  0.58648377  0.54992279  0.65939822    -0.06600
C534        C  0.68362976  0.46999501  0.57386737     0.92500
O535        O  0.65166803  0.50055923  0.45929105    -0.82900
C536        C  0.65557112  0.52523722  0.43340317     0.92600
O537        O  0.51312779  0.44980504  0.65026599    -0.82900
Mg538      Mg  0.49130536  0.60039990  0.60105011     1.58200
O539        O  0.66894905  0.48013930  0.54259885    -0.81200
O540        O  0.45940545  0.63800136  0.50831682    -0.82900
C541        C  0.60007853  0.77337150  0.46220215     0.03000
C542        C  0.57951263  0.79144467  0.49146729    -0.13100
C543        C  0.55539192  0.77061583  0.51583070     0.00500
C544        C  0.55439540  0.73077869  0.51101248    -0.11700
C545        C  0.57714578  0.71207466  0.48305589     0.03000
C546        C  0.60072438  0.73376929  0.45987517    -0.11100
H547        H  0.57713775  0.82205500  0.49084894     0.08600
H548        H  0.53371260  0.71467364  0.52726719     0.06100
H549        H  0.61553568  0.72023671  0.43645363     0.06000
C550        C  0.45214093  0.58569053  0.78442212     0.03000
C551        C  0.45018806  0.58610682  0.74438351    -0.13100
C552        C  0.47638201  0.56552327  0.72286525     0.00500
C553        C  0.50591997  0.54571992  0.74231173    -0.11700
C554        C  0.50929137  0.54638456  0.78247397     0.03000
C555        C  0.48196714  0.56674643  0.80325309    -0.11100
H556        H  0.42657667  0.60012663  0.73027325     0.08600
H557        H  0.52541368  0.52801643  0.72630437     0.06100
H558        H  0.48158081  0.56473003  0.83407739     0.06000
C559        C  0.78740444  0.46354380  0.60364097     0.03000
C560        C  0.80389601  0.49287622  0.58212767    -0.13100
C561        C  0.78183086  0.51400521  0.55635995     0.00500
C562        C  0.74224773  0.50704640  0.55527170    -0.11700
C563        C  0.72491479  0.47884353  0.57858286     0.03000
C564        C  0.74777839  0.45812691  0.60341670    -0.11100
H565        H  0.83469304  0.49441054  0.58030279     0.08600
H566        H  0.72551201  0.52144893  0.53370677     0.06100
H567        H  0.73548568  0.43456980  0.61897436     0.06000
O568        O  0.46347852  0.88641432  0.56810585    -0.88500
C569        C  0.39495401  0.79877813  0.55192901     0.87600
Mg570      Mg  0.44438217  0.93262627  0.60200907     1.58100
O571        O  0.39714243  0.86105571  0.47316510    -0.88200
O572        O  0.47875050  0.88058364  0.50750908    -0.75500
C573        C  0.26199066  0.95406979  0.55622497     0.92600
O574        O  0.40158386  0.84934685  0.62323039    -0.75300
O575        O  0.28181169  0.96886276  0.58302381    -0.82900
Mg576      Mg  0.45682886  0.83070881  0.59310358     1.58000
C577        C  0.29749076  0.89477010  0.41871300     0.92500
O578        O  0.51443801  0.80428331  0.56252291    -0.81100
H579        H  0.42676614  0.88939710  0.43357224    -0.06500
C580        C  0.30983067  0.86863053  0.54437847     0.87500
O581        O  0.42643050  0.96671110  0.54927954    -0.75600
O582        O  0.42323853  0.81853271  0.54461256    -0.88400
O583        O  0.31658785  0.86380234  0.42308660    -0.81200
C584        C  0.38757756  0.75790696  0.46344760     0.92600
C585        C  0.52011175  0.79041978  0.52881097     0.92500
Mg586      Mg  0.33170599  0.93392397  0.49412687     1.58000
O587        O  0.27770945  0.94262001  0.52601055    -0.81100
O588        O  0.38468684  0.92035507  0.45816432    -0.75400
O589        O  0.41748071  0.77318944  0.47604657    -0.81200
O590        O  0.48294988  0.84604010  0.65298897    -0.82900
O591        O  0.36961716  0.99920218  0.62218649    -0.81200
C592        C  0.40355575  0.88982816  0.45379913     0.86900
O593        O  0.36613262  0.95111234  0.54090867    -0.88400
O594        O  0.32805250  0.87806735  0.51559489    -0.88500
O595        O  0.31190434  0.88693811  0.57552735    -0.75500
Mg596      Mg  0.44558449  0.82804767  0.48899336     1.58000
O597        O  0.36121702  0.77801564  0.44813463    -0.82900
H598        H  0.50265681  0.91902628  0.54294371    -0.06600
O599        O  0.38945508  0.90863894  0.60799805    -0.88200
H600        H  0.35731477  0.87935807  0.64473191    -0.06500
H601        H  0.39216725  0.99069990  0.50939371    -0.06600
C602        C  0.38196617  0.87949154  0.62627854     0.86900
C603        C  0.48297608  0.89581223  0.54009245     0.87500
C604        C  0.39437418  0.97072035  0.53267855     0.87500
H605        H  0.29223027  0.84363212  0.54323781    -0.06600
O606        O  0.36416051  0.80117504  0.53294067    -0.75600
Mg607      Mg  0.34092688  0.94194822  0.59630972     1.58000
H608        H  0.39616940  0.77947575  0.57581220    -0.06600
C609        C  0.46805069  0.87320202  0.67247169     0.92500
O610        O  0.42892001  0.98175492  0.63711806    -0.82900
C611        C  0.40208579  0.00556242  0.63818592     0.92600
O612        O  0.49623623  0.79466343  0.50229168    -0.82900
Mg613      Mg  0.34313387  0.83287295  0.47929855     1.58200
O614        O  0.45604228  0.90273612  0.65617940    -0.81200
O615        O  0.29575334  0.91955350  0.44458492    -0.82900
C616        C  0.33407049  0.67196861  0.49795038     0.03000
C617        C  0.34405393  0.70389321  0.47623974    -0.13100
C618        C  0.38080225  0.71817163  0.47640235     0.00500
C619        C  0.40884063  0.69825799  0.49742203    -0.11700
C620        C  0.40021616  0.66528875  0.51900950     0.03000
C621        C  0.36203597  0.65248987  0.51960468    -0.11100
H622        H  0.32214433  0.71894575  0.46064535     0.08600
H623        H  0.43786547  0.70872986  0.49745925     0.06100
H624        H  0.35454007  0.62698952  0.53505556     0.06000
C625        C  0.15874572  0.95896769  0.58790229     0.03000
C626        C  0.14126932  0.93258716  0.56331996    -0.13100
C627        C  0.16331326  0.91204410  0.53675166     0.00500
C628        C  0.20288766  0.91907426  0.53555889    -0.11700
C629        C  0.22058461  0.94563049  0.56015161     0.03000
C630        C  0.19839785  0.96397632  0.58717896    -0.11100
H631        H  0.11047202  0.93136976  0.56189029     0.08600
H632        H  0.21950231  0.90553187  0.51337777     0.06100
H633        H  0.21144224  0.98494417  0.60554372     0.06000
C634        C  0.45109133  0.83019656  0.77035800     0.03000
C635        C  0.42854616  0.85806008  0.78857869    -0.13100
C636        C  0.41966706  0.89214128  0.76932988     0.00500
C637        C  0.43460097  0.89729574  0.73203211    -0.11700
C638        C  0.45748833  0.86945154  0.71370986     0.03000
C639        C  0.46521107  0.83627991  0.73337845    -0.11100
H640        H  0.41981455  0.85405359  0.81792740     0.08600
H641        H  0.42873389  0.92377982  0.71750048     0.06100
H642        H  0.48241355  0.81463186  0.71980492     0.06000
C643        C  0.22761251  0.22299764  0.77156125     0.80100
N644        N  0.26231779  0.22849370  0.75524502    -0.78200
C645        C  0.27464111  0.20623178  0.72606545     0.82500
N646        N  0.25164916  0.17805081  0.71344563    -0.78200
C647        C  0.21701549  0.17200059  0.72962469     0.82600
N648        N  0.20518359  0.19434475  0.75874464    -0.79900
C649        C  0.13858395  0.05574641  0.62027073    -0.11500
C650        C  0.13644430  0.04922282  0.65959486     0.15000
C651        C  0.12670605  0.01262613  0.67274230     0.01900
C652        C  0.12845132  0.98202789  0.64730750    -0.15900
C653        C  0.13699820  0.98814538  0.60868983    -0.10700
C654        C  0.13800286  0.02566648  0.59464569     0.08700
C655        C  0.15288950  0.07874539  0.68476350     0.09700
S656        S  0.11488742  0.00328515  0.72183865    -0.25000
H657        H  0.12660093  0.95336493  0.65826320     0.19900
S658        S  0.14581389  0.03641423  0.54497542    -0.30700
H659        H  0.14460104  0.08397226  0.60964010     0.10300
C660        C  0.18847722  0.07289843  0.70282138     0.03500
C661        C  0.20785416  0.10377484  0.71862127    -0.13000
C662        C  0.19310398  0.14053887  0.71602885    -0.08700
C663        C  0.15733620  0.14635822  0.69856039     0.06900
C664        C  0.13734063  0.11537631  0.68380195    -0.13800
S665        S  0.21172565  0.02718831  0.70211493    -0.30700
H666        H  0.23548542  0.09960897  0.73162660     0.11200
S667        S  0.13734440  0.19273862  0.69072159    -0.27800
H668        H  0.11073469  0.12022488  0.66898228     0.08400
H669        H  0.12929811  0.00293700  0.53111643     0.26800
H670        H  0.24221712  0.03653887  0.72628633     0.21600
H671        H  0.17228049  0.21162910  0.68607497     0.26900
H672        H  0.10740698  0.04113977  0.73168661     0.15800
C673        C  0.42538348  0.27145521  0.63296450    -0.11500
C674        C  0.42246102  0.24367965  0.66152519     0.15000
C675        C  0.45470971  0.23571170  0.68412991     0.01900
C676        C  0.48562346  0.26064618  0.68332351    -0.15900
C677        C  0.48431350  0.29389666  0.66120916    -0.10700
C678        C  0.45615858  0.29688681  0.63261749     0.08700
C679        C  0.38378308  0.23385787  0.67560458     0.09700
S680        S  0.45500460  0.19886510  0.71972633    -0.25000
H681        H  0.50775849  0.25745619  0.70460385     0.19900
S682        S  0.45507642  0.33694277  0.60058794    -0.30700
H683        H  0.40096903  0.27686377  0.61489774     0.10300
C684        C  0.36284825  0.26064434  0.69683787     0.03500
C685        C  0.32744198  0.25071077  0.71205543    -0.13000
C686        C  0.31218494  0.21422395  0.70754927    -0.08700
C687        C  0.33329259  0.18722260  0.68608710     0.06900
C688        C  0.36842457  0.19774771  0.66971847    -0.13800
S689        S  0.38149800  0.30760582  0.70557233    -0.30700
H690        H  0.31161459  0.27174650  0.72791603     0.11200
S691        S  0.31752378  0.13877078  0.68085451    -0.27800
H692        H  0.38452777  0.17755073  0.65302305     0.08400
H693        H  0.42597638  0.32311629  0.57687306     0.26800
H694        H  0.35087173  0.32123492  0.72746188     0.21600
H695        H  0.35059780  0.12466852  0.66318063     0.26900
H696        H  0.43507831  0.17254914  0.69750647     0.15800
C697        C  0.16661794  0.26986356  0.84774841    -0.11500
C698        C  0.19423747  0.28140639  0.87417691     0.15000
C699        C  0.23311121  0.27805967  0.86422347     0.01900
C700        C  0.24327532  0.26036713  0.82989202    -0.15900
C701        C  0.21546425  0.24655640  0.80457520    -0.10700
C702        C  0.17667751  0.25360095  0.81295547     0.08700
C703        C  0.18095169  0.28943506  0.91365816     0.09700
S704        S  0.27095758  0.29496347  0.89438742    -0.25000
H705        H  0.27323005  0.25623661  0.82361357     0.19900
S706        S  0.13843311  0.24313608  0.78053464    -0.30700
H707        H  0.13664660  0.27228301  0.85483736     0.10300
C708        C  0.15042582  0.31458314  0.92066936     0.03500
C709        C  0.12709301  0.30882601  0.95274949    -0.13000
C710        C  0.13413715  0.27854160  0.97778116    -0.08700
C711        C  0.16928166  0.25908853  0.97492558     0.06900
C712        C  0.19193430  0.26416615  0.94253711    -0.13800
S713        S  0.13882533  0.35122674  0.88661885    -0.30700
H714        H  0.10070877  0.32449948  0.95531054     0.11200
S715        S  0.18256181  0.22207198  0.00793283    -0.27800
H716        H  0.21577058  0.24520667  0.93797067     0.08400
H717        H  0.15912327  0.25425882  0.74802809     0.26800
H718        H  0.10848910  0.36713588  0.90735021     0.21600
H719        H  0.15867907  0.23450608  0.03759528     0.26900
H720        H  0.24874498  0.32168929  0.91407480     0.15800
C721        C  0.09581834  0.61015648  0.57154539    -0.11500
C722        C  0.13329371  0.61698029  0.58295833     0.15000
C723        C  0.16119458  0.62540686  0.55527318     0.01900
C724        C  0.14980868  0.63349816  0.51787213    -0.15900
C725        C  0.11115484  0.63227325  0.50779396    -0.10700
C726        C  0.08423440  0.61846660  0.53448796     0.08700
C727        C  0.13856100  0.62851316  0.62291256     0.09700
S728        S  0.21069856  0.63073109  0.56750737    -0.25000
H729        H  0.17061621  0.64360437  0.49746464     0.19900
S730        S  0.03377161  0.61664377  0.52505901    -0.30700
H731        H  0.07440849  0.60361469  0.59283814     0.10300
C732        C  0.13383197  0.66693142  0.63275176     0.03500
C733        C  0.13557613  0.67757041  0.67093988    -0.13000
C734        C  0.14269739  0.65079467  0.69957997    -0.08700
C735        C  0.14723367  0.61225583  0.68985736     0.06900
C736        C  0.14456392  0.60135303  0.65146762    -0.13800
S737        S  0.12527248  0.70260078  0.59659420    -0.30700
H738        H  0.13276257  0.70715594  0.67842112     0.11200
S739        S  0.15531284  0.57693967  0.72629070    -0.27800
H740        H  0.14723005  0.57187428  0.64356326     0.08400
H741        H  0.03139964  0.65386494  0.51093278     0.26800
H742        H  0.12547006  0.73417045  0.62093018     0.21600
H743        H  0.15778961  0.54564508  0.70170507     0.26900
H744        H  0.20905716  0.60872304  0.60091410     0.15800
C745        C  0.11773011  0.80605996  0.83304242    -0.11500
C746        C  0.10083067  0.82598760  0.80283850     0.15000
C747        C  0.08982521  0.80632929  0.76989898     0.01900
C748        C  0.10052512  0.76846892  0.76566134    -0.15900
C749        C  0.12184538  0.74955665  0.79396570    -0.10700
C750        C  0.12794249  0.76790917  0.82924126     0.08700
C751        C  0.10425767  0.86762450  0.80319556     0.09700
S752        S  0.06462150  0.82900146  0.73134537    -0.25000
H753        H  0.09424907  0.75468280  0.73887642     0.19900
S754        S  0.14958283  0.74383411  0.86926597    -0.30700
H755        H  0.12566188  0.82130751  0.85858217     0.10300
C756        C  0.08770047  0.88948261  0.83219464     0.03500
C757        C  0.10301511  0.92511677  0.84035026    -0.13000
C758        C  0.13450136  0.93918512  0.81978518    -0.08700
C759        C  0.14653977  0.91972584  0.78670472     0.06900
C760        C  0.13157163  0.88396633  0.77907184    -0.13800
S761        S  0.04941259  0.87058692  0.86083067    -0.30700
H762        H  0.09305695  0.93990617  0.86542190     0.11200
S763        S  0.18329410  0.93709022  0.75516242    -0.27800
H764        H  0.14374585  0.86743350  0.75611073     0.08400
H765        H  0.14579351  0.77343172  0.89574398     0.26800
H766        H  0.04112192  0.90436366  0.88034300     0.21600
H767        H  0.18168657  0.97491729  0.76741813     0.26900
H768        H  0.04870076  0.85807408  0.75360173     0.15800
C769        C  0.28493378  0.65420410  0.84458262    -0.11500
C770        C  0.31216671  0.65236894  0.81533892     0.15000
C771        C  0.30127898  0.66037278  0.77748913     0.01900
C772        C  0.26346728  0.66869285  0.76946281    -0.15900
C773        C  0.23575246  0.66907315  0.79820611    -0.10700
C774        C  0.24664003  0.66228200  0.83635945     0.08700
C775        C  0.34925141  0.63425432  0.82245245     0.09700
S776        S  0.33337796  0.65612599  0.73750772    -0.25000
H777        H  0.25538088  0.67399506  0.74009728     0.19900
S778        S  0.21290326  0.66019983  0.87503272    -0.30700
H779        H  0.29309091  0.64699030  0.87347655     0.10300
C780        C  0.38301429  0.65554415  0.82514633     0.03500
C781        C  0.41786916  0.63816727  0.81622529    -0.13000
C782        C  0.41908557  0.59984682  0.80583100    -0.08700
C783        C  0.38578228  0.57761735  0.80855728     0.06900
C784        C  0.35119647  0.59512209  0.81673862    -0.13800
S785        S  0.38095184  0.70550904  0.83544139    -0.30700
H786        H  0.44355067  0.65504067  0.81430510     0.11200
S787        S  0.38466794  0.52792142  0.79680466    -0.27800
H788        H  0.32512112  0.57872885  0.81506325     0.08400
H789        H  0.18214523  0.64678357  0.85331937     0.26800
H790        H  0.42056181  0.71152061  0.83582786     0.21600
H791        H  0.42179582  0.51977869  0.80921766     0.26900
H792        H  0.36400474  0.67464530  0.75501728     0.15800
C793        C  0.55395537  0.09942978  0.59781388    -0.11500
C794        C  0.56208840  0.13751469  0.60487081     0.15000
C795        C  0.53219818  0.16246672  0.61436969     0.01900
C796        C  0.49645637  0.14760618  0.62377372    -0.15900
C797        C  0.49022121  0.10837455  0.62311714    -0.10700
C798        C  0.51851793  0.08437230  0.60748555     0.08700
C799        C  0.60166435  0.14631574  0.61563591     0.09700
S800        S  0.53986271  0.21251651  0.62022586    -0.25000
H801        H  0.47470960  0.16621720  0.63508616     0.19900
S802        S  0.51365482  0.03358474  0.60508748    -0.30700
H803        H  0.57688106  0.08030401  0.59016197     0.10300
C804        C  0.61245289  0.14376888  0.65424408     0.03500
C805        C  0.65059478  0.14829586  0.66414527    -0.13000
C806        C  0.67849004  0.15551512  0.63645314    -0.08700
C807        C  0.66776220  0.15800140  0.59766469     0.06900
C808        C  0.62931723  0.15301424  0.58761248    -0.13800
S809        S  0.57779465  0.13357804  0.69111587    -0.30700
H810        H  0.65862741  0.14682306  0.69386717     0.11200
S811        S  0.70288752  0.16552411  0.56077796    -0.27800
H812        H  0.62072342  0.15387464  0.55801253     0.08400
H813        H  0.50225418  0.02927367  0.64327440     0.26800
H814        H  0.60285084  0.13523196  0.72230467     0.21600
H815        H  0.67729192  0.16693525  0.52999524     0.26900
H816        H  0.57302180  0.21425314  0.59778321     0.15800
C817        C  0.77538608  0.09410259  0.78765988    -0.11500
C818        C  0.78913625  0.12108044  0.81340124     0.15000
C819        C  0.79476150  0.15875654  0.80125852     0.01900
C820        C  0.78665944  0.16872734  0.76382374    -0.15900
C821        C  0.77281079  0.14208164  0.73768707    -0.10700
C822        C  0.76683291  0.10428091  0.74981894     0.08700
C823        C  0.79703957  0.11055890  0.85323546     0.09700
S824        S  0.81037846  0.19599562  0.83273970    -0.25000
H825        H  0.79046572  0.19802141  0.75534316     0.19900
S826        S  0.74949524  0.06868945  0.71732730    -0.30700
H827        H  0.77119445  0.06528814  0.79737780     0.10300
C828        C  0.77055980  0.11922984  0.88194533     0.03500
C829        C  0.78352518  0.12585900  0.91905555    -0.13000
C830        C  0.82240449  0.12263401  0.92768722    -0.08700
C831        C  0.84763848  0.10742915  0.90020146     0.06900
C832        C  0.83452620  0.10142338  0.86306056    -0.13800
S833        S  0.72106763  0.12560879  0.87030289    -0.30700
H834        H  0.76408505  0.13688745  0.94028913     0.11200
S835        S  0.89784907  0.10164482  0.91007568    -0.27800
H836        H  0.85453556  0.09429227  0.84069481     0.08400
H837        H  0.74545064  0.03948759  0.74436707     0.26800
H838        H  0.70808432  0.11975592  0.90777819     0.21600
H839        H  0.90678636  0.08142833  0.87675456     0.26900
H840        H  0.84015910  0.17522710  0.84934513     0.15800
C841        C  0.83396996  0.36861374  0.59951060    -0.11500
C842        C  0.82562031  0.35599645  0.63633271     0.15000
C843        C  0.81655063  0.38255492  0.66489215     0.01900
C844        C  0.80891676  0.42005017  0.65447847    -0.15900
C845        C  0.81069764  0.43115750  0.61613024    -0.10700
C846        C  0.82565292  0.40570720  0.58877437     0.08700
C847        C  0.81242158  0.31659671  0.63964745     0.09700
S848        S  0.80867636  0.36875132  0.71369724    -0.25000
H849        H  0.79774908  0.43945508  0.67557246     0.19900
S850        S  0.82771811  0.41624525  0.53852201    -0.30700
H851        H  0.84102205  0.34815931  0.57763733     0.10300
C852        C  0.77367472  0.30828682  0.63315452     0.03500
C853        C  0.76130076  0.27082771  0.63502463    -0.13000
C854        C  0.78675716  0.24130379  0.64326767    -0.08700
C855        C  0.82597205  0.24952711  0.64773041     0.06900
C856        C  0.83840218  0.28717883  0.64597264    -0.13800
S857        S  0.73966447  0.34549662  0.62282742    -0.30700
H858        H  0.73125420  0.26479557  0.63185277     0.11200
S859        S  0.86147786  0.21333176  0.65500960    -0.27800
H860        H  0.86835441  0.29360088  0.64949451     0.08400
H861        H  0.78912380  0.42669680  0.53599886     0.26800
H862        H  0.70803230  0.32199160  0.61628709     0.21600
H863        H  0.84196225  0.18508261  0.63468603     0.26900
H864        H  0.83010609  0.33515425  0.71179125     0.15800
C865        C  0.76048794  0.19502566  0.02395997    -0.11500
C866        C  0.73088383  0.21329998  0.00462383     0.15000
C867        C  0.71904713  0.24947328  0.01702830     0.01900
C868        C  0.73551051  0.26543395  0.04963098    -0.15900
C869        C  0.76376356  0.24636101  0.07074835    -0.10700
C870        C  0.77770258  0.21138159  0.05601631     0.08700
C871        C  0.70900394  0.19251233  0.97503661     0.09700
S872        S  0.68077127  0.27443578  0.99330335    -0.25000
H873        H  0.72488989  0.29240506  0.05951561     0.19900
S874        S  0.81688246  0.18537852  0.07617203    -0.30700
H875        H  0.76993088  0.16746054  0.01424350     0.10300
C876        C  0.70706999  0.20536729  0.93707329     0.03500
C877        C  0.67541739  0.19546004  0.91470515    -0.13000
C878        C  0.64637329  0.17226196  0.92963918    -0.08700
C879        C  0.65325169  0.15286566  0.96414565     0.06900
C880        C  0.68418657  0.16370719  0.98697634    -0.13800
S881        S  0.74262729  0.23743553  0.91871133    -0.30700
H882        H  0.67066326  0.20995335  0.88791034     0.11200
S883        S  0.61824945  0.12017114  0.98256921    -0.27800
H884        H  0.68662687  0.15273392  0.01569543     0.08400
H885        H  0.84060055  0.21727679  0.07829576     0.26800
H886        H  0.73050995  0.23591066  0.88054604     0.21600
H887        H  0.63893496  0.10918408  0.01508435     0.26900
H888        H  0.68088523  0.30702443  0.01626219     0.15800
C889        C  0.96319541  0.19143923  0.23829469    -0.11500
C890        C  0.92719467  0.18500490  0.25445034     0.15000
C891        C  0.92312427  0.15584519  0.28173982     0.01900
C892        C  0.95278543  0.12973111  0.28695231    -0.15900
C893        C  0.98616786  0.13208504  0.26499816    -0.10700
C894        C  0.99298981  0.16566229  0.24404567     0.08700
C895        C  0.89360245  0.20346062  0.23650903     0.09700
S896        S  0.87936706  0.14834584  0.30754185    -0.25000
H897        H  0.94741213  0.10450555  0.30376193     0.19900
S898        S  0.03653295  0.17273667  0.21777063    -0.30700
H899        H  0.96702528  0.21443956  0.21811697     0.10300
C900        C  0.88773775  0.24278441  0.23803025     0.03500
C901        C  0.85873648  0.25934507  0.21603342    -0.13000
C902        C  0.83450521  0.23713026  0.19327073    -0.08700
C903        C  0.83831277  0.19725928  0.19471503     0.06900
C904        C  0.86837700  0.18105032  0.21528847    -0.13800
S905        S  0.91670700  0.27163429  0.26863845    -0.30700
H906        H  0.85556139  0.28986498  0.21592760     0.11200
S907        S  0.80476839  0.16534831  0.17299213    -0.27800
H908        H  0.87213705  0.15057236  0.21483140     0.08400
H909        H  0.05772066  0.14575444  0.23838469     0.26800
H910        H  0.89356578  0.30407197  0.26644684     0.21600
H911        H  0.77283176  0.18876140  0.17865407     0.26900
H912        H  0.86650464  0.18598302  0.30465291     0.15800
C913        C  0.66386067  0.42556384  0.25513928    -0.11500
C914        C  0.69494697  0.43674930  0.23257934     0.15000
C915        C  0.70996480  0.47354938  0.23739304     0.01900
C916        C  0.69782958  0.49555428  0.26832018    -0.15900
C917        C  0.67216032  0.48086112  0.29539525    -0.10700
C918        C  0.65198151  0.44758965  0.28613874     0.08700
C919        C  0.71487865  0.40737315  0.20963758     0.09700
S920        S  0.74686617  0.49246669  0.20700720    -0.25000
H921        H  0.71310532  0.52145757  0.27465344     0.19900
S922        S  0.61599737  0.42841959  0.31725922    -0.30700
H923        H  0.65121304  0.39790344  0.25092517     0.10300
C924        C  0.75103290  0.39378264  0.22077860     0.03500
C925        C  0.76732165  0.36316866  0.20146140    -0.13000
C926        C  0.74801810  0.34423550  0.17200564    -0.08700
C927        C  0.71188326  0.35833474  0.16051777     0.06900
C928        C  0.69606216  0.38986969  0.17913045    -0.13800
S929        S  0.77546033  0.41305223  0.26175936    -0.30700
H930        H  0.79497486  0.35302407  0.21048969     0.11200
S931        S  0.68298434  0.33606574  0.12467109    -0.27800
H932        H  0.66802799  0.39979160  0.17088474     0.08400
H933        H  0.60656968  0.46327406  0.33406333     0.26800
H934        H  0.80897878  0.39141352  0.25870417     0.21600
H935        H  0.68716281  0.29953535  0.14023776     0.26900
H936        H  0.73862304  0.46943157  0.17545199     0.15800
C937        C  0.30423434  0.30898116  0.07561259    -0.11500
C938        C  0.33554113  0.32542305  0.09402868     0.15000
C939        C  0.36777475  0.33590053  0.07249464     0.01900
C940        C  0.36982941  0.32550319  0.03412218    -0.15900
C941        C  0.34004157  0.30523168  0.01679487    -0.10700
C942        C  0.30595847  0.29933847  0.03719137     0.08700
C943        C  0.33611047  0.32336606  0.13604374     0.09700
S944        S  0.40801681  0.36000461  0.09307669    -0.25000
H945        H  0.39608485  0.33058840  0.01866598     0.19900
S946        S  0.26485943  0.27698585  0.01657658    -0.30700
H947        H  0.27920823  0.30111644  0.09192441     0.10300
C948        C  0.30749090  0.34057279  0.15791486     0.03500
C949        C  0.30108675  0.32791334  0.19516009    -0.13000
C950        C  0.32249684  0.29788138  0.21099216    -0.08700
C951        C  0.35463666  0.28446302  0.19055405     0.06900
C952        C  0.36075039  0.29714692  0.15316928    -0.13800
S953        S  0.27761466  0.37697934  0.13741203    -0.30700
H954        H  0.27744158  0.33984355  0.21081227     0.11200
S955        S  0.38755717  0.25048575  0.21052695    -0.27800
H956        H  0.38307268  0.28443662  0.13614142     0.08400
H957        H  0.27372501  0.28649858  0.97873637     0.26800
H958        H  0.25357251  0.38184956  0.16910430     0.21600
H959        H  0.41507631  0.25245397  0.18142768     0.26900
H960        H  0.38783228  0.37599139  0.12371166     0.15800
C961        C  0.35064506  0.12918001  0.29336068    -0.11500
C962        C  0.32023247  0.10358535  0.29269173     0.15000
C963        C  0.28253426  0.11723981  0.29040967     0.01900
C964        C  0.27606002  0.15622916  0.28743100    -0.15900
C965        C  0.30644561  0.18203279  0.28749669    -0.10700
C966        C  0.34412363  0.16826909  0.29132075     0.08700
C967        C  0.32713034  0.06312352  0.30049947     0.09700
S968        S  0.24251231  0.08503827  0.29281170    -0.25000
H969        H  0.24719034  0.16666574  0.28467457     0.19900
S970        S  0.38473811  0.19894105  0.29666272    -0.30700
H971        H  0.37942824  0.11868609  0.29690894     0.10300
C972        C  0.32115583  0.03531023  0.27245694     0.03500
C973        C  0.31265874  0.99810342  0.28378799    -0.13000
C974        C  0.31128644  0.98852520  0.32260408    -0.08700
C975        C  0.32325872  0.01532766  0.34998634     0.06900
C976        C  0.33081875  0.05237431  0.33863440    -0.13800
S977        S  0.32059483  0.04812524  0.22274747    -0.30700
H978        H  0.30363358  0.97756208  0.26279626     0.11200
S979        S  0.32224889  0.00598379  0.40046307    -0.27800
H980        H  0.33580807  0.07377400  0.36015149     0.08400
H981        H  0.36485666  0.22843889  0.31476946     0.26800
H982        H  0.32402235  0.01082267  0.20918227     0.21600
H983        H  0.34819576  0.97576596  0.39802345     0.26900
H984        H  0.21370248  0.11273396  0.29297837     0.15800
C985        C  0.16259589  0.28906563  0.34274335    -0.11500
C986        C  0.14088885  0.30613460  0.31386208     0.15000
C987        C  0.15856066  0.31641293  0.27922657     0.01900
C988        C  0.19688964  0.30806588  0.27355670    -0.15900
C989        C  0.21828788  0.28881266  0.30131747    -0.10700
C990        C  0.20126681  0.28063832  0.33694978     0.08700
C991        C  0.09960263  0.31209682  0.31907374     0.09700
S992        S  0.13350971  0.33897685  0.24036172    -0.25000
H993        H  0.20937288  0.31470077  0.24611123     0.19900
S994        S  0.22745105  0.26040038  0.37616817    -0.30700
H995        H  0.14927580  0.28201012  0.36967506     0.10300
C996        C  0.07365311  0.28279076  0.31085014     0.03500
C997        C  0.03551202  0.29182891  0.30320873    -0.13000
C998        C  0.02308722  0.32956413  0.30359520    -0.08700
C999        C  0.04849634  0.35841328  0.31525895     0.06900
C1000       C  0.08630613  0.34921424  0.32352232    -0.13800
S1001       S  0.09007113  0.23462693  0.30544632    -0.30700
H1002       H  0.01600621  0.26995543  0.29404406     0.11200
S1003       S  0.03585144  0.40795916  0.31581392    -0.27800
H1004       H  0.10638113  0.37171249  0.32961365     0.08400
H1005       H  0.26274967  0.27619752  0.36575612     0.26800
H1006       H  0.05413101  0.21837763  0.29871329     0.21600
H1007       H  0.01655453  0.40765707  0.28073686     0.26900
H1008       H  0.09931406  0.31878471  0.24465211     0.15800
C1009       C  0.61375875  0.56174454  0.14039299    -0.11500
C1010       C  0.59846942  0.58118511  0.10897570     0.15000
C1011       C  0.59120668  0.56110213  0.07505853     0.01900
C1012       C  0.60437283  0.52392320  0.07156041    -0.15900
C1013       C  0.62371526  0.50600828  0.10169976    -0.10700
C1014       C  0.62562807  0.52418626  0.13724014     0.08700
C1015       C  0.59993792  0.62305091  0.10978728     0.09700
S1016       S  0.56808434  0.58238048  0.03444096    -0.25000
H1017       H  0.60192739  0.50994338  0.04423058     0.19900
S1018       S  0.64444709  0.50154422  0.17896639    -0.30700
H1019       H  0.61911951  0.57667140  0.16677558     0.10300
C1020       C  0.58328020  0.64400307  0.13944806     0.03500
C1021       C  0.59597421  0.68096006  0.14633894    -0.13000
C1022       C  0.62499513  0.69748787  0.12397467    -0.08700
C1023       C  0.63707777  0.67829172  0.09061159     0.06900
C1024       C  0.62498522  0.64107925  0.08448891    -0.13800
S1025       S  0.54742603  0.62288996  0.16972164    -0.30700
H1026       H  0.58502364  0.69582226  0.17091803     0.11200
S1027       S  0.66875624  0.69958744  0.05599279    -0.27800
H1028       H  0.63731269  0.62495103  0.06136575     0.08400
H1029       H  0.63758835  0.46429732  0.16675632     0.26800
H1030       H  0.54076808  0.65489599  0.19255284     0.21600
H1031       H  0.66678731  0.67073578  0.02851151     0.26900
H1032       H  0.54938525  0.61096675  0.05511696     0.15800
C1033       C  0.79155227  0.78584023  0.08659048    -0.11500
C1034       C  0.81963957  0.78200704  0.11469465     0.15000
C1035       C  0.80906759  0.77311985  0.15248775     0.01900
C1036       C  0.77068149  0.76762147  0.16121603    -0.15900
C1037       C  0.74248141  0.77170419  0.13329313    -0.10700
C1038       C  0.75298418  0.78114479  0.09558762     0.08700
C1039       C  0.85895929  0.79395912  0.10642016     0.09700
S1040       S  0.84406010  0.77128966  0.19032513    -0.25000
H1041       H  0.76245420  0.76047308  0.19009180     0.19900
S1042       S  0.71865273  0.79037254  0.05854505    -0.30700
H1043       H  0.79963040  0.79419446  0.05798192     0.10300
C1044       C  0.88978223  0.76860657  0.10987883     0.03500
C1045       C  0.92610151  0.78299304  0.11790928    -0.13000
C1046       C  0.93175204  0.82216363  0.12111946    -0.08700
C1047       C  0.90196141  0.84731405  0.11154104     0.06900
C1048       C  0.86576191  0.83292662  0.10451020    -0.13800
S1049       S  0.88184317  0.71816436  0.10833775    -0.30700
H1050       H  0.94908980  0.76382965  0.12515815     0.11200
S1051       S  0.90678243  0.89803391  0.11481837    -0.27800
H1052       H  0.84205837  0.85239383  0.10147649     0.08400
H1053       H  0.69013377  0.80468343  0.08271142     0.26800
H1054       H  0.92046554  0.70765240  0.11011139     0.21600
H1055       H  0.94120506  0.89942342  0.09445004     0.26900
H1056       H  0.81864491  0.76354967  0.22034569     0.15800
C1057       C  0.65306425  0.82442229  0.28647641    -0.11500
C1058       C  0.63126324  0.79909091  0.30812579     0.15000
C1059       C  0.61396028  0.76781044  0.29006929     0.01900
C1060       C  0.61963085  0.76201597  0.25121062    -0.15900
C1061       C  0.64331006  0.78598578  0.22970372    -0.10700
C1062       C  0.65909170  0.81841986  0.24750508     0.08700
C1063       C  0.62661241  0.80527047  0.34947996     0.09700
S1064       S  0.58588821  0.73298154  0.31531034    -0.25000
H1065       H  0.60725594  0.73703364  0.23835804     0.19900
S1066       S  0.68660966  0.85358222  0.22234147    -0.30700
H1067       H  0.66559693  0.84891542  0.30010665     0.10300
C1068       C  0.65645486  0.79752659  0.37520893     0.03500
C1069       C  0.64800999  0.79197976  0.41389755    -0.13000
C1070       C  0.61026931  0.79389794  0.42699341    -0.08700
C1071       C  0.58123493  0.80578769  0.40164053     0.06900
C1072       C  0.58996404  0.81228455  0.36343493    -0.13800
S1073       S  0.70439512  0.78998749  0.35843502    -0.30700
H1074       H  0.67016043  0.78245539  0.43314643     0.11200
S1075       S  0.53154729  0.80728126  0.41460087    -0.27800
H1076       H  0.56713191  0.81859996  0.34362633     0.08400
H1077       H  0.66550245  0.85086754  0.18839459     0.26800
H1078       H  0.72168456  0.79805607  0.39361377     0.21600
H1079       H  0.53082773  0.77012389  0.42912162     0.26900
H1080       H  0.60778615  0.73327850  0.34883405     0.15800
C1081       C  0.27699604  0.92581748  0.18173883    -0.11500
C1082       C  0.24872165  0.93770769  0.20735878     0.15000
C1083       C  0.23669452  0.97594889  0.20626293     0.01900
C1084       C  0.24873981  0.99932297  0.17621606    -0.15900
C1085       C  0.27129546  0.98496260  0.14643829    -0.10700
C1086       C  0.28856886  0.94914980  0.15148938     0.08700
C1087       C  0.22771631  0.90803689  0.22907610     0.09700
S1088       S  0.20224644  0.99542877  0.23901936    -0.25000
H1089       H  0.23549628  0.02686267  0.17286942     0.19900
S1090       S  0.31948005  0.92892661  0.11596075    -0.30700
H1091       H  0.28715486  0.89685125  0.18287307     0.10300
C1092       C  0.19070323  0.89702322  0.21802477     0.03500
C1093       C  0.17290620  0.86656431  0.23645106    -0.13000
C1094       C  0.19138105  0.84561925  0.26513258    -0.08700
C1095       C  0.22846956  0.85700904  0.27657629     0.06900
C1096       C  0.24602204  0.88815405  0.25847222    -0.13800
S1097       S  0.16678067  0.92000835  0.17860791    -0.30700
H1098       H  0.14461624  0.85828412  0.22756131     0.11200
S1099       S  0.25524215  0.83074991  0.31180044    -0.27800
H1100       H  0.27461332  0.89648224  0.26634727     0.08400
H1101       H  0.33273245  0.96385133  0.10203650     0.26800
H1102       H  0.13312187  0.89844049  0.17964296     0.21600
H1103       H  0.28815455  0.85341884  0.31130158     0.26900
H1104       H  0.20093776  0.96479216  0.26444042     0.15800
C1105       C  0.07294505  0.68208651  0.21747488    -0.11500
C1106       C  0.05016083  0.70359306  0.19270411     0.15000
C1107       C  0.05611503  0.74297899  0.19052466     0.01900
C1108       C  0.08232961  0.76034755  0.21508095    -0.15900
C1109       C  0.10449050  0.73895426  0.24076143    -0.10700
C1110       C  0.10087137  0.69900191  0.24022421     0.08700
C1111       C  0.01878038  0.68394269  0.17221902     0.09700
S1112       S  0.03210952  0.77222452  0.15617237    -0.25000
H1113       H  0.08544223  0.79086275  0.21400507     0.19900
S1114       S  0.13263029  0.66757952  0.26529805    -0.30700
H1115       H  0.06924128  0.65163812  0.21871908     0.10300
C1116       C  0.02634976  0.65435026  0.14639330     0.03500
C1117       C  0.99779148  0.62757658  0.13854777    -0.13000
C1118       C  0.96233536  0.62951233  0.15705465    -0.08700
C1119       C  0.95269423  0.66336688  0.17622836     0.06900
C1120       C  0.98114729  0.69000683  0.18422168    -0.13800
S1121       S  0.07346470  0.64853201  0.12665969    -0.30700
H1122       H  0.00521493  0.60199887  0.12331194     0.11200
S1123       S  0.90678299  0.66955054  0.19835554    -0.27800
H1124       H  0.97475329  0.71337871  0.20312144     0.08400
H1125       H  0.16513009  0.69030125  0.26007805     0.26800
H1126       H  0.06386680  0.61959227  0.10093749     0.21600
H1127       H  0.88822559  0.64213395  0.17605625     0.26900
H1128       H  0.02571667  0.74358677  0.12919425     0.15800
C1129       C  0.17513651  0.69459855  0.41072977    -0.11500
C1130       C  0.20602781  0.71123835  0.42947822     0.15000
C1131       C  0.21839836  0.74752355  0.41768460     0.01900
C1132       C  0.20120654  0.76504954  0.38617078    -0.15900
C1133       C  0.17210600  0.74725842  0.36521352    -0.10700
C1134       C  0.15754346  0.71238567  0.37955404     0.08700
C1135       C  0.22880351  0.68827192  0.45689627     0.09700
S1136       S  0.25881170  0.77032087  0.43983376    -0.25000
H1137       H  0.21226572  0.79201072  0.37665061     0.19900
S1138       S  0.11715649  0.68831345  0.35970772    -0.30700
H1139       H  0.16520451  0.66698651  0.41995403     0.10300
C1140       C  0.23556629  0.70018811  0.49458737     0.03500
C1141       C  0.26804218  0.68670945  0.51381346    -0.13000
C1142       C  0.29334797  0.66145929  0.49584995    -0.08700
C1143       C  0.28103771  0.64313348  0.46240901     0.06900
C1144       C  0.24940314  0.65729239  0.44269438    -0.13800
S1145       S  0.20496728  0.73498088  0.51654816    -0.30700
H1146       H  0.27673265  0.70012353  0.54009659     0.11200
S1147       S  0.30932652  0.60706668  0.43978689    -0.27800
H1148       H  0.24324461  0.64658875  0.41447992     0.08400
H1149       H  0.09498989  0.72136955  0.35730616     0.26800
H1150       H  0.22388431  0.73587089  0.55184575     0.21600
H1151       H  0.32889934  0.59645256  0.47308274     0.26900
H1152       H  0.25477195  0.80577438  0.42189888     0.15800
C1153       C  0.74475108  0.76474177  0.49703716    -0.11500
C1154       C  0.72345376  0.73345908  0.48466008     0.15000
C1155       C  0.72836535  0.72102345  0.44665910     0.01900
C1156       C  0.75911654  0.73501159  0.42511749    -0.15900
C1157       C  0.78527099  0.76087635  0.44083013    -0.10700
C1158       C  0.77497286  0.77903938  0.47511332     0.08700
C1159       C  0.70176256  0.71140823  0.51395130     0.09700
S1160       S  0.69903108  0.68491048  0.42528002    -0.25000
H1161       H  0.76594173  0.72137615  0.39833951     0.19900
S1162       S  0.80415706  0.81555264  0.49559859    -0.30700
H1163       H  0.74023199  0.77580454  0.52544980     0.10300
C1164       C  0.71395231  0.67510431  0.52586496     0.03500
C1165       C  0.69689713  0.65784860  0.55768582    -0.13000
C1166       C  0.66802713  0.67584354  0.57893991    -0.08700
C1167       C  0.65410275  0.71118541  0.56501548     0.06900
C1168       C  0.67152588  0.72863523  0.53343713    -0.13800
S1169       S  0.75368911  0.65173744  0.50297461    -0.30700
H1170       H  0.70773953  0.63076367  0.56704280     0.11200
S1171       S  0.61475029  0.73634176  0.58583311    -0.27800
H1172       H  0.66176589  0.75630874  0.52425548     0.08400
H1173       H  0.82073957  0.82670006  0.46086267     0.26800
H1174       H  0.75193415  0.61755349  0.52358324     0.21600
H1175       H  0.59147153  0.70412125  0.58822593     0.26900
H1176       H  0.67104151  0.68362598  0.45378444     0.15800
C1177       C  0.76783213  0.48837095  0.75521310    -0.11500
C1178       C  0.73803298  0.47780499  0.73081832     0.15000
C1179       C  0.72492949  0.43994349  0.73220453     0.01900
C1180       C  0.73603665  0.41651911  0.76269692    -0.15900
C1181       C  0.76010129  0.43016523  0.79165723    -0.10700
C1182       C  0.77976724  0.46437983  0.78480349     0.08700
C1183       C  0.71751296  0.50836361  0.70958230     0.09700
S1184       S  0.69110806  0.42121854  0.69850196    -0.25000
H1185       H  0.72142098  0.38979600  0.76683165     0.19900
S1186       S  0.81451820  0.48217268  0.81787969    -0.30700
H1187       H  0.77946636  0.51673300  0.75345399     0.10300
C1188       C  0.68040918  0.51974254  0.72033653     0.03500
C1189       C  0.66383134  0.55172355  0.70325789    -0.13000
C1190       C  0.68331534  0.57342371  0.67580084    -0.08700
C1191       C  0.72021504  0.56143151  0.66433917     0.06900
C1192       C  0.73675304  0.52915628  0.68139834    -0.13800
S1193       S  0.65477379  0.49533408  0.75778972    -0.30700
H1194       H  0.63569258  0.56052297  0.71221540     0.11200
S1195       S  0.74814973  0.58834508  0.63055123    -0.27800
H1196       H  0.76535833  0.52064415  0.67371877     0.08400
H1197       H  0.82682514  0.44614637  0.82974458     0.26800
H1198       H  0.62169913  0.51784228  0.75714412     0.21600
H1199       H  0.77929894  0.56337710  0.62851169     0.26900
H1200       H  0.69415485  0.45060671  0.67171724     0.15800
C1201       C  0.48022641  0.73227226  0.76507569    -0.11500
C1202       C  0.51813530  0.73767759  0.77645224     0.15000
C1203       C  0.52673541  0.76821157  0.80091162     0.01900
C1204       C  0.49935019  0.79645946  0.80703973    -0.15900
C1205       C  0.46389025  0.79475892  0.78869661    -0.10700
C1206       C  0.45285411  0.76035747  0.77152826     0.08700
C1207       C  0.54844839  0.71790463  0.75452172     0.09700
S1208       S  0.57350931  0.77490034  0.82091141    -0.25000
H1209       H  0.50789700  0.82242907  0.82101309     0.19900
S1210       S  0.40694461  0.75502297  0.74924812    -0.30700
H1211       H  0.47297428  0.70846230  0.74709177     0.10300
C1212       C  0.55254693  0.67831864  0.75475043     0.03500
C1213       C  0.57807167  0.66097680  0.72927245    -0.13000
C1214       C  0.60076827  0.68258548  0.70419749    -0.08700
C1215       C  0.59851297  0.72259300  0.70629607     0.06900
C1216       C  0.57171726  0.73956594  0.73036030    -0.13800
S1217       S  0.52607864  0.65007394  0.78824483    -0.30700
H1218       H  0.57991765  0.63037998  0.72858861     0.11200
S1219       S  0.63038543  0.75392298  0.68127857    -0.27800
H1220       H  0.56912688  0.77016703  0.73043569     0.08400
H1221       H  0.38913802  0.78386930  0.77037273     0.26800
H1222       H  0.54794680  0.61704579  0.78355656     0.21600
H1223       H  0.66247857  0.73036308  0.68522554     0.26900
H1224       H  0.58465102  0.73672983  0.81811654     0.15800
loop_ 
_geom_bond_atom_site_label_1 
_geom_bond_atom_site_label_2 
_geom_bond_distance 
_geom_bond_site_symmetry_2 
_ccdc_geom_bond_type 
C1            N2   1.361       .  A
C1            N6   1.359       .  A
C1         C1190   1.499       .  S
N2            C3   1.366       .  A
C3            N4   1.362       .  A
C3         C1166   1.510       .  S
N4            C5   1.362       .  A
C5            N6   1.358       .  A
C5         C1214   1.492       .  S
C7            N8   1.365       .  A
C7           N12   1.361       .  A
C7         C1133   1.506       .  S
N8            C9   1.360       .  A
C9           N10   1.360       .  A
C9         C1094   1.497       .  S
N10          C11   1.357       .  A
C11          N12   1.361       .  A
C11        C1109   1.492       .  S
C13          N14   1.361       .  A
C13          N18   1.358       .  A
C13        C1022   1.492       .  S
N14          C15   1.360       .  A
C15          N16   1.354       .  A
C15        C1061   1.484       .  S
N16          C17   1.354       .  A
C17          N18   1.354       .  A
C17        C1037   1.468       .  S
C19          N20   1.360       .  A
C19          N24   1.359       .  A
C19         C965   1.477       .  S
N20          C21   1.358       .  A
C21          N22   1.355       .  A
C21         C989   1.480       .  S
N22          C23   1.356       .  A
C23          N24   1.359       .  A
C23         C950   1.493       .  S
C25          N26   1.354       .  A
C25          N30   1.359       .  A
C25         C902   1.486       .  S
N26          C27   1.358       .  A
C27          N28   1.361       .  A
C27         C926   1.496       .  S
N28          C29   1.368       .  A
C29          N30   1.361       .  A
C29         C869   1.506       .  S
C31          N32   1.356       .  A
C31          N36   1.356       .  A
C31         C821   1.479       .  S
N32          C33   1.354       .  A
C33          N34   1.358       .  A
C33         C854   1.474       .  S
N34          C35   1.356       .  A
C35          N36   1.360       .  A
C35         C806   1.477       .  S
C37          N38   1.358       .  A
C37          N42   1.354       .  A
C37         C773   1.470       .  S
N38          C39   1.362       .  A
C39          N40   1.360       .  A
C39         C749   1.487       .  S
N40          C41   1.357       .  A
C41          N42   1.350       .  A
C41         C734   1.471       .  S
O43         Mg45   2.093   1_565  S
O43         Mg51   2.130       .  S
O43          C78   1.238   1_565  S
C44          O57   1.242   1_556  S
C44          O81   1.278   1_565  A
C44          H83   1.081       .  S
Mg45         O74   2.103   1_455  S
Mg45         O89   2.241   1_545  S
Mg45         O85   2.181   1_455  S
Mg45         O56   2.331       .  S
O46         Mg88   2.134   1_554  S
O46         Mg71   2.101       .  S
O46          C67   1.238       .  S
O47          C78   1.274       .  A
O47         Mg71   2.330       .  S
C48         C411   1.490       .  S
C48          O50   1.283       .  A
C48          O62   1.267       .  A
O49          C77   1.277   1_455  A
O49         Mg51   2.321       .  S
O50         Mg82   2.361       .  S
Mg51         O57   2.214       .  S
Mg51         O65   2.382       .  S
Mg51         O53   2.421       .  S
C52          C95   1.489       .  S
C52          O90   1.247       .  A
C52          O58   1.282       .  A
O53          C60   1.282       .  A
H54          C67   1.079       .  S
C55          O69   1.241   1_655  S
C55          O70   1.277   1_556  A
C55          H80   1.082       .  S
O56          C79   1.274       .  A
O57         Mg71   2.102   1_565  S
O58         Mg88   2.424       .  S
C59         C486   1.492       .  S
C59          O72   1.284       .  A
C59          O64   1.264       .  A
C60         C111   1.489       .  S
C60          O87   1.245       .  A
Mg61         O68   2.091       .  S
Mg61         O69   2.100   1_554  S
Mg61         O62   2.259   1_455  S
Mg61         O63   2.334       .  S
Mg61         O90   2.178   1_554  S
O63          C67   1.275       .  A
O64         Mg71   2.236   1_556  S
O65          C84   1.286       .  A
O66          C86   1.278       .  A
O66         Mg82   2.404       .  S
O68         Mg82   2.130   1_455  S
O68          C79   1.239       .  S
O69         Mg88   2.203       .  S
O70         Mg82   2.321       .  S
Mg71         O87   2.181   1_545  S
O72         Mg88   2.374       .  S
H73          C78   1.080       .  S
O74         Mg82   2.211       .  S
O74          C77   1.241   1_545  S
H75          C77   1.079       .  S
H76          C79   1.080       .  S
O81         Mg88   2.325       .  S
C84         C261   1.492       .  S
C84          O89   1.265       .  A
O85          C86   1.245       .  A
C86         C102   1.489       .  S
C91         C710   1.485       .  S
C91          C92   1.420   1_556  A
C91          C96   1.407       .  A
C92          H97   1.083       .  S
C92          C93   1.415       .  A
C93         C352   1.498       .  S
C93          C94   1.413       .  A
C94          H98   1.084       .  S
C94          C95   1.416   1_554  A
C95          C96   1.383       .  A
C96          H99   1.085       .  S
C100        C893   1.479       .  S
C100        C101   1.403       .  A
C100        C105   1.420   1_655  A
C101        H106   1.086       .  S
C101        C102   1.383       .  A
C102        C103   1.415   1_655  A
C103        H107   1.084   1_545  S
C103        C104   1.415       .  A
C104        C202   1.501   1_545  S
C104        C105   1.417       .  A
C105        H108   1.083       .  S
C109       C1085   1.480       .  S
C109        C110   1.402       .  A
C109        C114   1.422   1_565  A
C110        H115   1.085       .  S
C110        C111   1.380       .  A
C111        C112   1.417   1_565  A
C112        H116   1.084       .  S
C112        C113   1.416       .  A
C113        C435   1.504       .  S
C113        C114   1.418       .  A
C114        H117   1.083       .  S
O118       Mg120   2.115       .  S
O118       Mg126   2.149       .  S
O118        C153   1.242       .  S
C119        O132   1.239       .  S
C119        O156   1.272       .  A
C119        H158   1.080       .  S
Mg120       O149   2.119       .  S
Mg120       O164   2.226       .  S
Mg120       O160   2.164       .  S
Mg120       O131   2.289       .  S
O121       Mg163   2.166       .  S
O121       Mg146   2.134       .  S
O121        C142   1.242       .  S
O122        C153   1.274       .  A
O122       Mg146   2.284       .  S
C123        C177   1.498       .  S
C123        O125   1.287       .  A
C123        O137   1.260       .  A
O124        C152   1.271       .  A
O124       Mg126   2.302       .  S
O125       Mg157   2.333       .  S
Mg126       O132   2.110       .  S
Mg126       O140   2.320       .  S
Mg126       O128   2.425       .  S
C127        C404   1.485       .  S
C127        O165   1.260       .  A
C127        O133   1.293       .  A
O128        C135   1.290       .  A
H129        C142   1.079       .  S
C130        O144   1.240       .  S
C130        O145   1.273       .  A
C130        H155   1.079       .  S
O131        C154   1.275       .  A
O132       Mg146   2.128       .  S
O133       Mg163   2.448       .  S
C134        C170   1.492       .  S
C134        O147   1.286       .  A
C134        O139   1.260       .  A
C135        C561   1.482       .  S
C135        O162   1.263       .  A
Mg136       O143   2.122       .  S
Mg136       O144   2.121       .  S
Mg136       O137   2.217       .  S
Mg136       O138   2.291       .  S
Mg136       O165   2.166       .  S
O138        C142   1.275       .  A
O139       Mg146   2.204       .  S
O140        C159   1.285       .  A
O141        C161   1.293       .  A
O141       Mg157   2.449   1_455  S
O143       Mg157   2.154       .  S
O143        C154   1.243       .  S
O144       Mg163   2.108       .  S
O145       Mg157   2.309       .  S
Mg146       O162   2.191       .  S
O147       Mg163   2.325       .  S
H148        C153   1.078       .  S
O149       Mg157   2.103       .  S
O149        C152   1.239       .  S
H150        C152   1.082       .  S
H151        C154   1.081   1_455  S
O156       Mg163   2.307       .  S
C159        C186   1.494       .  S
C159        O164   1.262       .  A
O160        C161   1.260   1_655  A
C161        C245   1.482       .  S
C166        C917   1.480       .  S
C166        C167   1.421       .  A
C166        C171   1.403       .  A
C167        H172   1.083       .  S
C167        C168   1.416       .  A
C168        C536   1.505       .  S
C168        C169   1.419       .  A
C169        H173   1.084       .  S
C169        C170   1.418       .  A
C170        C171   1.383       .  A
C171        H174   1.083       .  S
C175       C1118   1.480       .  S
C175        C176   1.402       .  A
C175        C180   1.421       .  A
C176        H181   1.086       .  S
C176        C177   1.382       .  A
C177        C178   1.425       .  A
C178        H182   1.084       .  S
C178        C179   1.424       .  A
C179        C360   1.512       .  S
C179        C180   1.419       .  A
C180        H183   1.083       .  S
C184       C1157   1.487       .  S
C184        C185   1.401       .  A
C184        C189   1.427       .  A
C185        H190   1.084       .  S
C185        C186   1.383       .  A
C186        C187   1.418       .  A
C187        H191   1.084       .  S
C187        C188   1.422       .  A
C188        C236   1.515       .  S
C188        C189   1.423       .  A
C189        H192   1.083       .  S
O193       Mg195   2.138       .  S
O193       Mg201   2.150       .  S
O193        C228   1.243       .  S
C194        O207   1.241       .  S
C194        O231   1.274       .  A
C194        H233   1.079       .  S
Mg195       O224   2.119       .  S
Mg195       O239   2.256       .  S
Mg195       O235   2.215   1_455  S
Mg195       O206   2.294   1_455  S
O196       Mg238   2.156       .  S
O196       Mg221   2.118       .  S
O196        C217   1.243       .  S
O197        C228   1.276       .  A
O197       Mg221   2.300       .  S
C198        C263   1.502       .  S
C198        O200   1.290       .  A
C198        O212   1.265       .  A
O199        C227   1.276       .  A
O199       Mg201   2.321       .  S
O200       Mg232   2.373       .  S
Mg201       O207   2.107       .  S
Mg201       O215   2.320       .  S
Mg201       O203   2.450       .  S
C202        O240   1.266       .  A
C202        O208   1.295       .  A
O203        C210   1.293       .  A
H204        C217   1.080       .  S
C205        O219   1.241       .  S
C205        O220   1.274       .  A
C205        H230   1.084       .  S
O206        C229   1.275       .  A
O207       Mg221   2.111       .  S
O208       Mg238   2.466       .  S
C209        C252   1.500       .  S
C209        O222   1.287       .  A
C209        O214   1.264       .  A
C210        C627   1.491       .  S
C210        O237   1.263       .  A
Mg211       O218   2.140       .  S
Mg211       O219   2.122   1_655  S
Mg211       O212   2.237       .  S
Mg211       O213   2.288   1_655  S
Mg211       O240   2.209   1_655  S
O213        C217   1.275       .  A
O214       Mg221   2.237       .  S
O215        C234   1.282       .  A
O216        C236   1.301       .  A
O216       Mg232   2.511       .  S
O218       Mg232   2.160       .  S
O218        C229   1.242       .  S
O219       Mg238   2.126       .  S
O220       Mg232   2.318   1_455  S
Mg221       O237   2.198       .  S
O222       Mg238   2.360       .  S
H223        C228   1.081       .  S
O224       Mg232   2.124   1_455  S
O224        C227   1.242       .  S
H225        C227   1.080       .  S
H226        C229   1.081       .  S
O231       Mg238   2.311       .  S
C234        C243   1.493       .  S
C234        O239   1.267       .  A
O235        C236   1.267       .  A
C241        C725   1.475       .  S
C241        C242   1.405       .  A
C241        C246   1.408       .  A
C242        H247   1.085       .  S
C242        C243   1.395       .  A
C243        C244   1.421       .  A
C244        H248   1.083       .  S
C244        C245   1.412       .  A
C245        C246   1.407       .  A
C246        H249   1.085       .  S
C250        C974   1.474       .  S
C250        C251   1.407       .  A
C250        C255   1.406       .  A
C251        H256   1.083       .  S
C251        C252   1.394       .  A
C252        C253   1.426       .  A
C253        H257   1.084       .  S
C253        C254   1.415       .  A
C254        C577   1.489       .  S
C254        C255   1.403       .  A
C255        H258   1.084       .  S
C259       C1046   1.467       .  S
C259        C260   1.406       .  A
C259        C264   1.408       .  A
C260        H265   1.084       .  S
C260        C261   1.401   1_655  A
C261        C262   1.418       .  A
C262        H266   1.084       .  S
C262        C263   1.428   1_455  A
C263        C264   1.393       .  A
C264        H267   1.084       .  S
O268       Mg270   2.097       .  S
O268       Mg276   2.128       .  S
O268        C303   1.239       .  S
C269        O282   1.241       .  S
C269        O306   1.277       .  A
C269        H308   1.084       .  S
Mg270       O299   2.102       .  S
Mg270       O314   2.250       .  S
Mg270       O310   2.188       .  S
Mg270       O281   2.335       .  S
O271       Mg313   2.130       .  S
O271       Mg296   2.088       .  S
O271        C292   1.238       .  S
O272        C303   1.276       .  A
O272       Mg296   2.339       .  S
C273        C554   1.489       .  S
C273        O275   1.286       .  A
C273        O287   1.263       .  A
O274        C302   1.278       .  A
O274       Mg276   2.325       .  S
O275       Mg307   2.382       .  S
Mg276       O282   2.205       .  S
Mg276       O290   2.360   1_556  S
Mg276       O278   2.411       .  S
C277        C320   1.489       .  S
C277        O315   1.247       .  A
C277        O283   1.279       .  A
O278        C285   1.279       .  A
H279        C292   1.082       .  S
C280        O294   1.241       .  S
C280        O295   1.277       .  A
C280        H305   1.081       .  S
O281        C304   1.275       .  A
O282       Mg296   2.097       .  S
O283       Mg313   2.412       .  S
C284        C479   1.484       .  S
C284        O297   1.282       .  A
C284        O289   1.264       .  A
C285        C327   1.491       .  S
C285        O312   1.245       .  A
Mg286       O293   2.094       .  S
Mg286       O294   2.097       .  S
Mg286       O287   2.235       .  S
Mg286       O288   2.328       .  S
Mg286       O315   2.181       .  S
O288        C292   1.274       .  A
O289       Mg296   2.239       .  S
O290        C309   1.283       .  A
O291        C311   1.282       .  A
O291       Mg307   2.424       .  S
O293       Mg307   2.130       .  S
O293        C304   1.238       .  S
O294       Mg313   2.202       .  S
O295       Mg307   2.319       .  S
Mg296       O312   2.185       .  S
O297       Mg313   2.357       .  S
H298        C303   1.078       .  S
O299       Mg307   2.214       .  S
O299        C302   1.241       .  S
H300        C302   1.080       .  S
H301        C304   1.079       .  S
O306       Mg313   2.324       .  S
C309        C393   1.486       .  S
C309        O314   1.266   1_554  A
O310        C311   1.246       .  A
C311        C336   1.494       .  S
C316        C677   1.485       .  S
C316        C317   1.418       .  A
C316        C321   1.408       .  A
C317        H322   1.083       .  S
C317        C318   1.413       .  A
C318        C510   1.493       .  S
C318        C319   1.412       .  A
C319        H323   1.084       .  S
C319        C320   1.414       .  A
C320        C321   1.385       .  A
C321        H324   1.083       .  S
C325        C878   1.479       .  S
C325        C326   1.402       .  A
C325        C330   1.422       .  A
C326        H331   1.080       .  S
C326        C327   1.381       .  A
C327        C328   1.414       .  A
C328        H332   1.084       .  S
C328        C329   1.418       .  A
C329        C461   1.505       .  S
C329        C330   1.418       .  A
C330        H333   1.083       .  S
C334       C1181   1.485       .  S
C334        C335   1.403       .  A
C334        C339   1.425       .  A
C335        H340   1.083       .  S
C335        C336   1.382       .  A
C336        C337   1.417       .  A
C337        H341   1.084       .  S
C337        C338   1.419       .  A
C338        C386   1.513       .  S
C338        C339   1.420       .  A
C339        H342   1.083       .  S
O343       Mg345   2.150       .  S
O343       Mg351   2.162       .  S
O343        C378   1.242       .  S
C344        O357   1.242       .  S
C344        O381   1.276       .  A
C344        H383   1.081       .  S
Mg345       O374   2.121       .  S
Mg345       O389   2.247       .  S
Mg345       O385   2.234   1_554  S
Mg345       O356   2.292   1_554  S
O346       Mg388   2.147       .  S
O346       Mg371   2.123       .  S
O346        C367   1.242       .  S
O347        C378   1.275       .  A
O347       Mg371   2.299       .  S
C348        C413   1.498       .  S
C348        O350   1.287       .  A
C348        O362   1.267       .  A
O349        C377   1.277       .  A
O349       Mg351   2.328       .  S
O350       Mg382   2.362       .  S
Mg351       O357   2.127       .  S
Mg351       O365   2.371       .  S
Mg351       O353   2.514       .  S
C352        O390   1.267   1_455  A
C352        O358   1.293   1_455  A
O353        C360   1.302       .  A
H354        C367   1.081       .  S
C355        O369   1.240       .  S
C355        O370   1.274       .  A
C355        H380   1.083       .  S
O356        C379   1.274       .  A
O357       Mg371   2.117       .  S
O358       Mg388   2.454       .  S
C359        C402   1.491       .  S
C359        O372   1.284       .  A
C359        O364   1.265       .  A
C360        O387   1.263       .  A
Mg361       O368   2.136       .  S
Mg361       O369   2.120   1_556  S
Mg361       O362   2.245       .  S
Mg361       O363   2.292   1_556  S
Mg361       O390   2.218   1_556  S
O363        C367   1.274       .  A
O364       Mg371   2.245       .  S
O365        C384   1.288       .  A
O366        C386   1.297       .  A
O366       Mg382   2.483       .  S
O368       Mg382   2.158       .  S
O368        C379   1.242       .  S
O369       Mg388   2.123       .  S
O370       Mg382   2.312   1_554  S
Mg371       O387   2.199       .  S
O372       Mg388   2.341       .  S
H373        C378   1.079       .  S
O374       Mg382   2.138   1_554  S
O374        C377   1.243       .  S
H375        C377   1.077       .  S
H376        C379   1.080       .  S
O381       Mg388   2.320       .  S
C384        C395   1.502       .  S
C384        O389   1.267       .  A
O385        C386   1.269       .  A
C391       C1013   1.479       .  S
C391        C392   1.405       .  A
C391        C396   1.413       .  A
C392        H397   1.085       .  S
C392        C393   1.398       .  A
C393        C394   1.412       .  A
C394        H398   1.084       .  S
C394        C395   1.425       .  A
C395        C396   1.400       .  A
C396        H399   1.083       .  S
C400        C998   1.475   1_655  S
C400        C401   1.403       .  A
C400        C405   1.406       .  A
C401        H406   1.084   1_655  S
C401        C402   1.394       .  A
C402        C403   1.425       .  A
C403        H407   1.084       .  S
C403        C404   1.414       .  A
C404        C405   1.408       .  A
C405        H408   1.085       .  S
C409        C830   1.475       .  S
C409        C410   1.408       .  A
C409        C414   1.409       .  A
C410        H415   1.084       .  S
C410        C411   1.401   1_556  A
C411        C412   1.414       .  A
C412        H416   1.084       .  S
C412        C413   1.423   1_554  A
C413        C414   1.396       .  A
C414        H417   1.083       .  S
O418       Mg420   2.139       .  S
O418       Mg426   2.161       .  S
O418        C453   1.242       .  S
C419        O432   1.241       .  S
C419        O456   1.275       .  A
C419        H458   1.082       .  S
Mg420       O449   2.117       .  S
Mg420       O464   2.247       .  S
Mg420       O460   2.213       .  S
Mg420       O431   2.289       .  S
O421       Mg463   2.157       .  S
O421       Mg446   2.142       .  S
O421        C442   1.243       .  S
O422        C453   1.274       .  A
O422       Mg446   2.291   1_545  S
C423        C468   1.498       .  S
C423        O425   1.286       .  A
C423        O437   1.264       .  A
O424        C452   1.273       .  A
O424       Mg426   2.313       .  S
O425       Mg457   2.353       .  S
Mg426       O432   2.126       .  S
Mg426       O440   2.352       .  S
Mg426       O428   2.478   1_556  S
C427        C636   1.504       .  S
C427        O465   1.264       .  A
C427        O433   1.298       .  A
O428        C435   1.296       .  A
H429        C442   1.078       .  S
C430        O444   1.242       .  S
C430        O445   1.274       .  A
C430        H455   1.079       .  S
O431        C454   1.274       .  A
O432       Mg446   2.126   1_545  S
O433       Mg463   2.484       .  S
C434        C488   1.500       .  S
C434        O447   1.286       .  A
C434        O439   1.265       .  A
C435        O462   1.265   1_554  A
Mg436       O443   2.125       .  S
Mg436       O444   2.113       .  S
Mg436       O437   2.232       .  S
Mg436       O438   2.299   1_545  S
Mg436       O465   2.205   1_545  S
O438        C442   1.276       .  A
O439       Mg446   2.241       .  S
O440        C459   1.287       .  A
O441        C461   1.295       .  A
O441       Mg457   2.471       .  S
O443       Mg457   2.158       .  S
O443        C454   1.242       .  S
O444       Mg463   2.112   1_545  S
O445       Mg457   2.313       .  S
Mg446       O462   2.208   1_565  S
O447       Mg463   2.346       .  S
H448        C453   1.082       .  S
O449       Mg457   2.124       .  S
O449        C452   1.240       .  S
H450        C452   1.082       .  S
H451        C454   1.081       .  S
O456       Mg463   2.321   1_545  S
C459        C477   1.493       .  S
C459        O464   1.267       .  A
O460        C461   1.267       .  A
C466        C797   1.474       .  S
C466        C467   1.407       .  A
C466        C471   1.407       .  A
C467        H472   1.084       .  S
C467        C468   1.393       .  A
C468        C469   1.425       .  A
C469        H473   1.083       .  S
C469        C470   1.414       .  A
C470        C611   1.487       .  S
C470        C471   1.405       .  A
C471        H474   1.085       .  S
C475        C941   1.478   1_556  S
C475        C476   1.409       .  A
C475        C480   1.407       .  A
C476        H481   1.083   1_556  S
C476        C477   1.394       .  A
C477        C478   1.422       .  A
C478        H482   1.084       .  S
C478        C479   1.412       .  A
C479        C480   1.402       .  A
C480        H483   1.085       .  S
C484        C758   1.484       .  S
C484        C485   1.412       .  A
C484        C489   1.412       .  A
C485        H490   1.084   1_565  S
C485        C486   1.400   1_565  A
C486        C487   1.416       .  A
C487        H491   1.084       .  S
C487        C488   1.423   1_545  A
C488        C489   1.393       .  A
C489        H492   1.082       .  S
O493       Mg495   2.122       .  S
O493       Mg501   2.156       .  S
O493        C528   1.242       .  S
C494        O507   1.240       .  S
C494        O531   1.273       .  A
C494        H533   1.079       .  S
Mg495       O524   2.113       .  S
Mg495       O539   2.229       .  S
Mg495       O535   2.197       .  S
Mg495       O506   2.291       .  S
O496       Mg538   2.160       .  S
O496       Mg521   2.133       .  S
O496        C517   1.243       .  S
O497        C528   1.274       .  A
O497       Mg521   2.290       .  S
C498        C545   1.495       .  S
C498        O500   1.286       .  A
C498        O512   1.263       .  A
O499        C527   1.273       .  A
O499       Mg501   2.305       .  S
O500       Mg532   2.341       .  S
Mg501       O507   2.122       .  S
Mg501       O515   2.337       .  S
Mg501       O503   2.443       .  S
C502        C620   1.503       .  S
C502        O540   1.264       .  A
C502        O508   1.295       .  A
O503        C510   1.292       .  A
H504        C517   1.082       .  S
C505        O519   1.242       .  S
C505        O520   1.276       .  A
C505        H530   1.076       .  S
O506        C529   1.275       .  A
O507       Mg521   2.120       .  S
O508       Mg538   2.472       .  S
C509        C552   1.497       .  S
C509        O522   1.287       .  A
C509        O514   1.266       .  A
C510        O537   1.266       .  A
Mg511       O518   2.132       .  S
Mg511       O519   2.117       .  S
Mg511       O512   2.236       .  S
Mg511       O513   2.293       .  S
Mg511       O540   2.201       .  S
O513        C517   1.275       .  A
O514       Mg521   2.247       .  S
O515        C534   1.284       .  A
O516        C536   1.297       .  A
O516       Mg532   2.485       .  S
O518       Mg532   2.153       .  S
O518        C529   1.243       .  S
O519       Mg538   2.125       .  S
O520       Mg532   2.320       .  S
Mg521       O537   2.206       .  S
O522       Mg538   2.356       .  S
H523        C528   1.078       .  S
O524       Mg532   2.102       .  S
O524        C527   1.241       .  S
H525        C527   1.076       .  S
H526        C529   1.078       .  S
O531       Mg538   2.314       .  S
C534        C563   1.492       .  S
C534        O539   1.264       .  A
O535        C536   1.265       .  A
C541       C1070   1.475       .  S
C541        C542   1.409       .  A
C541        C546   1.401       .  A
C542        H547   1.084       .  S
C542        C543   1.409       .  A
C543        C585   1.493       .  S
C543        C544   1.418       .  A
C544        H548   1.084       .  S
C544        C545   1.428       .  A
C545        C546   1.389       .  A
C546        H549   1.084       .  S
C550        C782   1.470       .  S
C550        C551   1.407       .  A
C550        C555   1.407       .  A
C551        H556   1.085       .  S
C551        C552   1.395       .  A
C552        C553   1.424       .  A
C553        H557   1.084       .  S
C553        C554   1.415       .  A
C554        C555   1.403       .  A
C555        H558   1.084       .  S
C559        C845   1.472       .  S
C559        C560   1.405       .  A
C559        C564   1.404       .  A
C560        H565   1.084       .  S
C560        C561   1.404       .  A
C561        C562   1.412       .  A
C562        H566   1.084       .  S
C562        C563   1.424       .  A
C563        C564   1.391       .  A
C564        H567   1.084       .  S
O568       Mg570   2.130       .  S
O568       Mg576   2.164       .  S
O568        C603   1.242       .  S
C569        O582   1.240       .  S
C569        O606   1.273       .  A
C569        H608   1.080       .  S
Mg570       O599   2.117       .  S
Mg570       O614   2.211       .  S
Mg570       O610   2.198       .  S
Mg570       O581   2.294       .  S
O571       Mg613   2.152       .  S
O571       Mg596   2.134       .  S
O571        C592   1.242       .  S
O572        C603   1.274       .  A
O572       Mg596   2.287       .  S
C573        C629   1.490       .  S
C573        O575   1.283       .  A
C573        O587   1.262       .  A
O574        C602   1.272       .  A
O574       Mg576   2.305       .  S
O575       Mg607   2.329       .  S
Mg576       O582   2.117       .  S
Mg576       O590   2.359       .  S
Mg576       O578   2.472       .  S
C577        O615   1.264       .  A
C577        O583   1.291       .  A
O578        C585   1.297       .  A
H579        C592   1.080       .  S
C580        O594   1.240       .  S
C580        O595   1.274       .  A
C580        H605   1.079       .  S
O581        C604   1.275       .  A
O582       Mg596   2.129       .  S
O583       Mg613   2.438       .  S
C584        C618   1.493       .  S
C584        O597   1.284       .  A
C584        O589   1.262       .  A
C585        O612   1.262       .  A
Mg586       O593   2.130       .  S
Mg586       O594   2.114       .  S
Mg586       O587   2.222       .  S
Mg586       O588   2.298       .  S
Mg586       O615   2.210       .  S
O588        C592   1.274       .  A
O589       Mg596   2.223       .  S
O590        C609   1.290       .  A
O591        C611   1.291   1_565  A
O591       Mg607   2.438       .  S
O593       Mg607   2.159       .  S
O593        C604   1.243       .  S
O594       Mg613   2.112       .  S
O595       Mg607   2.314       .  S
Mg596       O612   2.183       .  S
O597       Mg613   2.315       .  S
H598        C603   1.077       .  S
O599       Mg607   2.110       .  S
O599        C602   1.240       .  S
H600        C602   1.080       .  S
H601        C604   1.081       .  S
O606       Mg613   2.309       .  S
C609        C638   1.499       .  S
C609        O614   1.261       .  A
O610        C611   1.263   1_565  A
C616       C1142   1.479       .  S
C616        C617   1.404       .  A
C616        C621   1.419       .  A
C617        H622   1.083       .  S
C617        C618   1.386       .  A
C618        C619   1.416       .  A
C619        H623   1.084       .  S
C619        C620   1.420       .  A
C620        C621   1.415       .  A
C621        H624   1.082       .  S
C625        C653   1.476       .  S
C625        C626   1.413       .  A
C625        C630   1.404       .  A
C626        H631   1.083       .  S
C626        C627   1.413       .  A
C627        C628   1.412       .  A
C628        H632   1.084       .  S
C628        C629   1.420       .  A
C629        C630   1.388       .  A
C630        H633   1.085       .  S
C634       C1205   1.476       .  S
C634        C635   1.416       .  A
C634        C639   1.405       .  A
C635        H640   1.083       .  S
C635        C636   1.413       .  A
C636        C637   1.421       .  A
C637        H641   1.084       .  S
C637        C638   1.424       .  A
C638        C639   1.385       .  A
C639        H642   1.085       .  S
C643        N644   1.360       .  A
C643        N648   1.360       .  A
C643        C701   1.490       .  S
N644        C645   1.363       .  A
C645        N646   1.357       .  A
C645        C686   1.496       .  S
N646        C647   1.358       .  A
C647        N648   1.358       .  A
C647        C662   1.474       .  S
C649        H659   1.084       .  S
C649        C650   1.401       .  A
C649        C654   1.394       .  A
C650        C655   1.486       .  S
C650        C651   1.413       .  A
C651        C652   1.405   1_545  A
C651        S656   1.802       .  S
C652        H657   1.084       .  S
C652        C653   1.404       .  A
C653        C654   1.413   1_565  A
C654        S658   1.804       .  S
C655        C660   1.416       .  A
C655        C664   1.404       .  A
S656        H672   1.406       .  S
S658        H669   1.406       .  S
C660        C661   1.402       .  A
C660        S665   1.809       .  S
C661        H666   1.082       .  S
C661        C662   1.400       .  A
C662        C663   1.413       .  A
C663        C664   1.401       .  A
C663        S667   1.802       .  S
C664        H668   1.083       .  S
S665        H670   1.407       .  S
S667        H671   1.406       .  S
C673        H683   1.083       .  S
C673        C674   1.404       .  A
C673        C678   1.406       .  A
C674        C679   1.486       .  S
C674        C675   1.411       .  A
C675        C676   1.398       .  A
C675        S680   1.801       .  S
C676        H681   1.084       .  S
C676        C677   1.407       .  A
C677        C678   1.413       .  A
C678        S682   1.805       .  S
C679        C684   1.411       .  A
C679        C688   1.401       .  A
S680        H696   1.403       .  S
S682        H693   1.407       .  S
C684        C685   1.397       .  A
C684        S689   1.811       .  S
C685        H690   1.082       .  S
C685        C686   1.405       .  A
C686        C687   1.424       .  A
C687        C688   1.410       .  A
C687        S691   1.809       .  S
C688        H692   1.083       .  S
S689        H694   1.406       .  S
S691        H695   1.407       .  S
C697        H707   1.084       .  S
C697        C698   1.404       .  A
C697        C702   1.396       .  A
C698        C703   1.490       .  S
C698        C699   1.413       .  A
C699        C700   1.405       .  A
C699        S704   1.803       .  S
C700        H705   1.084       .  S
C700        C701   1.409       .  A
C701        C702   1.415       .  A
C702        S706   1.800       .  S
C703        C708   1.413       .  A
C703        C712   1.403       .  A
S704        H720   1.406       .  S
S706        H717   1.407       .  S
C708        C709   1.406       .  A
C708        S713   1.806       .  S
C709        H714   1.082       .  S
C709        C710   1.404       .  A
C710        C711   1.415       .  A
C711        C712   1.398       .  A
C711        S715   1.806   1_556  S
C712        H716   1.083       .  S
S713        H718   1.407       .  S
S715        H719   1.407       .  S
C721        H731   1.084       .  S
C721        C722   1.397       .  A
C721        C726   1.394       .  A
C722        C727   1.473       .  S
C722        C723   1.410       .  A
C723        C724   1.401       .  A
C723        S728   1.801       .  S
C724        H729   1.083       .  S
C724        C725   1.403       .  A
C725        C726   1.416       .  A
C726        S730   1.804       .  S
C727        C732   1.411       .  A
C727        C736   1.401       .  A
S728        H744   1.406       .  S
S730        H741   1.406       .  S
C732        C733   1.394       .  A
C732        S737   1.811       .  S
C733        H738   1.082       .  S
C733        C734   1.401       .  A
C734        C735   1.413       .  A
C735        C736   1.406       .  A
C735        S739   1.806       .  S
C736        H740   1.082       .  S
S737        H742   1.406       .  S
S739        H743   1.407       .  S
C745        H755   1.084       .  S
C745        C746   1.403       .  A
C745        C750   1.401       .  A
C746        C751   1.476       .  S
C746        C747   1.405       .  A
C747        C748   1.397       .  A
C747        S752   1.803       .  S
C748        H753   1.083       .  S
C748        C749   1.411       .  A
C749        C750   1.416       .  A
C750        S754   1.808       .  S
C751        C756   1.404       .  A
C751        C760   1.402       .  A
S752        H768   1.407       .  S
S754        H765   1.407       .  S
C756        C757   1.399       .  A
C756        S761   1.805       .  S
C757        H762   1.082       .  S
C757        C758   1.410       .  A
C758        C759   1.415       .  A
C759        C760   1.395       .  A
C759        S763   1.806       .  S
C760        H764   1.084       .  S
S761        H766   1.407       .  S
S763        H767   1.406       .  S
C769        H779   1.084       .  S
C769        C770   1.404       .  A
C769        C774   1.404       .  A
C770        C775   1.471       .  S
C770        C771   1.411       .  A
C771        C772   1.388       .  A
C771        S776   1.805       .  S
C772        H777   1.085       .  S
C772        C773   1.401       .  A
C773        C774   1.413       .  A
C774        S778   1.802       .  S
C775        C780   1.408       .  A
C775        C784   1.399       .  A
S776        H792   1.402       .  S
S778        H789   1.406       .  S
C780        C781   1.404       .  A
C780        S785   1.804       .  S
C781        H786   1.083       .  S
C781        C782   1.403       .  A
C782        C783   1.412       .  A
C783        C784   1.392       .  A
C783        S787   1.804       .  S
C784        H788   1.085       .  S
S785        H790   1.407       .  S
S787        H791   1.404       .  S
C793        H803   1.084       .  S
C793        C794   1.398       .  A
C793        C798   1.395       .  A
C794        C799   1.474       .  S
C794        C795   1.410       .  A
C795        C796   1.399       .  A
C795        S800   1.800       .  S
C796        H801   1.083       .  S
C796        C797   1.403       .  A
C797        C798   1.417       .  A
C798        S802   1.804       .  S
C799        C804   1.410       .  A
C799        C808   1.401       .  A
S800        H816   1.406       .  S
S802        H813   1.406       .  S
C804        C805   1.393       .  A
C804        S809   1.811       .  S
C805        H810   1.082       .  S
C805        C806   1.402       .  A
C806        C807   1.415       .  A
C807        C808   1.407       .  A
C807        S811   1.806       .  S
C808        H812   1.083       .  S
S809        H814   1.406       .  S
S811        H815   1.407       .  S
C817        H827   1.082       .  S
C817        C818   1.401       .  A
C817        C822   1.408       .  A
C818        C823   1.472       .  S
C818        C819   1.410       .  A
C819        C820   1.389       .  A
C819        S824   1.806       .  S
C820        H825   1.084       .  S
C820        C821   1.404       .  A
C821        C822   1.416       .  A
C822        S826   1.806       .  S
C823        C828   1.405       .  A
C823        C832   1.398       .  A
S824        H840   1.403       .  S
S826        H837   1.407       .  S
C828        C829   1.401       .  A
C828        S833   1.799       .  S
C829        H834   1.083       .  S
C829        C830   1.403       .  A
C830        C831   1.416       .  A
C831        C832   1.400       .  A
C831        S835   1.808       .  S
C832        H836   1.083       .  S
S833        H838   1.406       .  S
S835        H839   1.407       .  S
C841        H851   1.084       .  S
C841        C842   1.397       .  A
C841        C846   1.393       .  A
C842        C847   1.471       .  S
C842        C843   1.411       .  A
C843        C844   1.398       .  A
C843        S848   1.801       .  S
C844        H849   1.083       .  S
C844        C845   1.402       .  A
C845        C846   1.417       .  A
C846        S850   1.803       .  S
C847        C852   1.411       .  A
C847        C856   1.399       .  A
S848        H864   1.406       .  S
S850        H861   1.407       .  S
C852        C853   1.394       .  A
C852        S857   1.811       .  S
C853        H858   1.082       .  S
C853        C854   1.402       .  A
C854        C855   1.416       .  A
C855        C856   1.401       .  A
C855        S859   1.803       .  S
C856        H860   1.083       .  S
S857        H862   1.406       .  S
S859        H863   1.407       .  S
C865        H875   1.084       .  S
C865        C866   1.398       .  A
C865        C870   1.404       .  A
C866        C871   1.488   1_554  S
C866        C867   1.413       .  A
C867        C868   1.402       .  A
C867        S872   1.809   1_554  S
C868        H873   1.081       .  S
C868        C869   1.409       .  A
C869        C870   1.427       .  A
C870        S874   1.798       .  S
C871        C876   1.408       .  A
C871        C880   1.403       .  A
S872        H888   1.407   1_556  S
S874        H885   1.404       .  S
C876        C877   1.406       .  A
C876        S881   1.804       .  S
C877        H882   1.083       .  S
C877        C878   1.408       .  A
C878        C879   1.411       .  A
C879        C880   1.404       .  A
C879        S883   1.805       .  S
C880        H884   1.082   1_556  S
S881        H886   1.407       .  S
S883        H887   1.407   1_556  S
C889        H899   1.085       .  S
C889        C890   1.403       .  A
C889        C894   1.401       .  A
C890        C895   1.487       .  S
C890        C891   1.412       .  A
C891        C892   1.402       .  A
C891        S896   1.802       .  S
C892        H897   1.084       .  S
C892        C893   1.404       .  A
C893        C894   1.414       .  A
C894        S898   1.802   1_655  S
C895        C900   1.405       .  A
C895        C904   1.404       .  A
S896        H912   1.407       .  S
S898        H909   1.407       .  S
C900        C901   1.405       .  A
C900        S905   1.799       .  S
C901        H906   1.083       .  S
C901        C902   1.408       .  A
C902        C903   1.415       .  A
C903        C904   1.401       .  A
C903        S907   1.802       .  S
C904        H908   1.084       .  S
S905        H910   1.406       .  S
S907        H911   1.407       .  S
C913        H923   1.084       .  S
C913        C914   1.404       .  A
C913        C918   1.402       .  A
C914        C919   1.489       .  S
C914        C915   1.413       .  A
C915        C916   1.403       .  A
C915        S920   1.805       .  S
C916        H921   1.084       .  S
C916        C917   1.407       .  A
C917        C918   1.411       .  A
C918        S922   1.801       .  S
C919        C924   1.412       .  A
C919        C928   1.404       .  A
S920        H936   1.407       .  S
S922        H933   1.406       .  S
C924        C925   1.399       .  A
C924        S929   1.810       .  S
C925        H930   1.082       .  S
C925        C926   1.408       .  A
C926        C927   1.421       .  A
C927        C928   1.406       .  A
C927        S931   1.800       .  S
C928        H932   1.084       .  S
S929        H934   1.407       .  S
S931        H935   1.407       .  S
C937        H947   1.084       .  S
C937        C938   1.403       .  A
C937        C942   1.393       .  A
C938        C943   1.476       .  S
C938        C939   1.409       .  A
C939        C940   1.399       .  A
C939        S944   1.803       .  S
C940        H945   1.084       .  S
C940        C941   1.407       .  A
C941        C942   1.409       .  A
C942        S946   1.799       .  S
C943        C948   1.403       .  A
C943        C952   1.401       .  A
S944        H960   1.407       .  S
S946        H957   1.404   1_554  S
C948        C949   1.398       .  A
C948        S953   1.807       .  S
C949        H954   1.081       .  S
C949        C950   1.412       .  A
C950        C951   1.418       .  A
C951        C952   1.402       .  A
C951        S955   1.806       .  S
C952        H956   1.083       .  S
S953        H958   1.407       .  S
S955        H959   1.407       .  S
C961        H971   1.083       .  S
C961        C962   1.400       .  A
C961        C966   1.401       .  A
C962        C967   1.474       .  S
C962        C963   1.411       .  A
C963        C964   1.399       .  A
C963        S968   1.810       .  S
C964        H969   1.083       .  S
C964        C965   1.404       .  A
C965        C966   1.415       .  A
C966        S970   1.802       .  S
C967        C972   1.408       .  A
C967        C976   1.396       .  A
S968        H984   1.406       .  S
S970        H981   1.406       .  S
C972        C973   1.404   1_545  A
C972        S977   1.801       .  S
C973        H978   1.083       .  S
C973        C974   1.404       .  A
C974        C975   1.415   1_565  A
C975        C976   1.392       .  A
C975        S979   1.802       .  S
C976        H980   1.084       .  S
S977        H982   1.407       .  S
S979        H983   1.405   1_545  S
C985        H995   1.083       .  S
C985        C986   1.403       .  A
C985        C990   1.404       .  A
C986        C991   1.476       .  S
C986        C987   1.411       .  A
C987        C988   1.392       .  A
C987        S992   1.807       .  S
C988        H993   1.083       .  S
C988        C989   1.405       .  A
C989        C990   1.415       .  A
C990        S994   1.802       .  S
C991        C996   1.410       .  A
C991       C1000   1.400       .  A
S992       H1008   1.405       .  S
S994       H1005   1.407       .  S
C996        C997   1.402       .  A
C996       S1001   1.806       .  S
C997       H1002   1.083       .  S
C997        C998   1.402       .  A
C998        C999   1.416       .  A
C999       C1000   1.397       .  A
C999       S1003   1.805       .  S
C1000      H1004   1.084       .  S
S1001      H1006   1.407       .  S
S1003      H1007   1.406       .  S
C1009      H1019   1.084       .  S
C1009      C1010   1.404       .  A
C1009      C1014   1.395       .  A
C1010      C1015   1.480       .  S
C1010      C1011   1.411       .  A
C1011      C1012   1.397       .  A
C1011      S1016   1.803       .  S
C1012      H1017   1.084       .  S
C1012      C1013   1.406       .  A
C1013      C1014   1.406       .  A
C1014      S1018   1.793       .  S
C1015      C1020   1.406       .  A
C1015      C1024   1.401       .  A
S1016      H1032   1.407       .  S
S1018      H1029   1.406       .  S
C1020      C1021   1.401       .  A
C1020      S1025   1.807       .  S
C1021      H1026   1.081       .  S
C1021      C1022   1.411       .  A
C1022      C1023   1.419       .  A
C1023      C1024   1.399       .  A
C1023      S1027   1.809       .  S
C1024      H1028   1.083       .  S
S1025      H1030   1.407       .  S
S1027      H1031   1.407       .  S
C1033      H1043   1.083       .  S
C1033      C1034   1.402       .  A
C1033      C1038   1.400       .  A
C1034      C1039   1.472       .  S
C1034      C1035   1.412       .  A
C1035      C1036   1.395       .  A
C1035      S1040   1.811       .  S
C1036      H1041   1.083       .  S
C1036      C1037   1.401       .  A
C1037      C1038   1.413       .  A
C1038      S1042   1.803       .  S
C1039      C1044   1.409       .  A
C1039      C1048   1.398       .  A
S1040      H1056   1.406       .  S
S1042      H1053   1.406       .  S
C1044      C1045   1.402       .  A
C1044      S1049   1.804       .  S
C1045      H1050   1.083       .  S
C1045      C1046   1.402       .  A
C1046      C1047   1.412       .  A
C1047      C1048   1.392       .  A
C1047      S1051   1.803       .  S
C1048      H1052   1.084       .  S
S1049      H1054   1.407       .  S
S1051      H1055   1.404       .  S
C1057      H1067   1.084       .  S
C1057      C1058   1.400       .  A
C1057      C1062   1.401       .  A
C1058      C1063   1.477       .  S
C1058      C1059   1.413       .  A
C1059      C1060   1.394       .  A
C1059      S1064   1.806       .  S
C1060      H1065   1.083       .  S
C1060      C1061   1.405       .  A
C1061      C1062   1.420       .  A
C1062      S1066   1.803       .  S
C1063      C1068   1.410       .  A
C1063      C1072   1.398       .  A
S1064      H1080   1.406       .  S
S1066      H1077   1.407       .  S
C1068      C1069   1.403       .  A
C1068      S1073   1.802       .  S
C1069      H1074   1.083       .  S
C1069      C1070   1.404       .  A
C1070      C1071   1.416       .  A
C1071      C1072   1.394       .  A
C1071      S1075   1.803       .  S
C1072      H1076   1.084       .  S
S1073      H1078   1.406       .  S
S1075      H1079   1.407       .  S
C1081      H1091   1.084       .  S
C1081      C1082   1.404       .  A
C1081      C1086   1.402       .  A
C1082      C1087   1.489       .  S
C1082      C1083   1.415       .  A
C1083      C1084   1.403       .  A
C1083      S1088   1.805       .  S
C1084      H1089   1.084   1_565  S
C1084      C1085   1.406       .  A
C1085      C1086   1.413       .  A
C1086      S1090   1.801       .  S
C1087      C1092   1.412       .  A
C1087      C1096   1.403       .  A
S1088      H1104   1.401       .  S
S1090      H1101   1.405       .  S
C1092      C1093   1.401       .  A
C1092      S1097   1.809       .  S
C1093      H1098   1.082       .  S
C1093      C1094   1.406       .  A
C1094      C1095   1.422       .  A
C1095      C1096   1.411       .  A
C1095      S1099   1.807       .  S
C1096      H1100   1.083       .  S
S1097      H1102   1.407       .  S
S1099      H1103   1.406       .  S
C1105      H1115   1.084       .  S
C1105      C1106   1.403       .  A
C1105      C1110   1.400       .  A
C1106      C1111   1.489       .  S
C1106      C1107   1.409       .  A
C1107      C1108   1.404       .  A
C1107      S1112   1.796       .  S
C1108      H1113   1.084       .  S
C1108      C1109   1.409       .  A
C1109      C1110   1.417       .  A
C1110      S1114   1.801       .  S
C1111      C1116   1.410       .  A
C1111      C1120   1.403   1_455  A
S1112      H1128   1.406       .  S
S1114      H1125   1.407       .  S
C1116      C1117   1.407   1_455  A
C1116      S1121   1.804       .  S
C1117      H1122   1.083   1_655  S
C1117      C1118   1.405       .  A
C1118      C1119   1.414       .  A
C1119      C1120   1.402       .  A
C1119      S1123   1.802       .  S
C1120      H1124   1.084       .  S
S1121      H1126   1.407       .  S
S1123      H1127   1.407       .  S
C1129      H1139   1.084       .  S
C1129      C1130   1.400       .  A
C1129      C1134   1.404       .  A
C1130      C1135   1.490       .  S
C1130      C1131   1.414       .  A
C1131      C1132   1.403       .  A
C1131      S1136   1.809       .  S
C1132      H1137   1.081       .  S
C1132      C1133   1.409       .  A
C1133      C1134   1.424       .  A
C1134      S1138   1.796       .  S
C1135      C1140   1.410       .  A
C1135      C1144   1.403       .  A
S1136      H1152   1.407       .  S
S1138      H1149   1.405       .  S
C1140      C1141   1.407       .  A
C1140      S1145   1.805       .  S
C1141      H1146   1.083       .  S
C1141      C1142   1.408       .  A
C1142      C1143   1.410       .  A
C1143      C1144   1.400       .  A
C1143      S1147   1.800       .  S
C1144      H1148   1.083       .  S
S1145      H1150   1.407       .  S
S1147      H1151   1.406       .  S
C1153      H1163   1.084       .  S
C1153      C1154   1.405       .  A
C1153      C1158   1.404       .  A
C1154      C1159   1.496       .  S
C1154      C1155   1.416       .  A
C1155      C1156   1.407       .  A
C1155      S1160   1.805       .  S
C1156      H1161   1.084       .  S
C1156      C1157   1.410       .  A
C1157      C1158   1.412       .  A
C1158      S1162   1.800       .  S
C1159      C1164   1.414       .  A
C1159      C1168   1.402       .  A
S1160      H1176   1.402       .  S
S1162      H1173   1.406       .  S
C1164      C1165   1.405       .  A
C1164      S1169   1.809       .  S
C1165      H1170   1.080       .  S
C1165      C1166   1.410       .  A
C1166      C1167   1.425       .  A
C1167      C1168   1.406       .  A
C1167      S1171   1.798       .  S
C1168      H1172   1.084       .  S
S1169      H1174   1.407       .  S
S1171      H1175   1.404       .  S
C1177      H1187   1.084       .  S
C1177      C1178   1.404       .  A
C1177      C1182   1.403       .  A
C1178      C1183   1.495       .  S
C1178      C1179   1.415       .  A
C1179      C1180   1.406       .  A
C1179      S1184   1.804       .  S
C1180      H1185   1.084       .  S
C1180      C1181   1.409       .  A
C1181      C1182   1.412       .  A
C1182      S1186   1.800       .  S
C1183      C1188   1.414       .  A
C1183      C1192   1.403       .  A
S1184      H1200   1.402       .  S
S1186      H1197   1.405       .  S
C1188      C1189   1.403       .  A
C1188      S1193   1.809       .  S
C1189      H1194   1.082       .  S
C1189      C1190   1.407       .  A
C1190      C1191   1.421       .  A
C1191      C1192   1.411       .  A
C1191      S1195   1.807       .  S
C1192      H1196   1.082       .  S
S1193      H1198   1.407       .  S
S1195      H1199   1.406       .  S
C1201      H1211   1.083       .  S
C1201      C1202   1.403       .  A
C1201      C1206   1.399       .  A
C1202      C1207   1.488       .  S
C1202      C1203   1.413       .  A
C1203      C1204   1.402       .  A
C1203      S1208   1.803       .  S
C1204      H1209   1.084       .  S
C1204      C1205   1.404       .  A
C1205      C1206   1.412       .  A
C1206      S1210   1.802       .  S
C1207      C1212   1.405       .  A
C1207      C1216   1.403       .  A
S1208      H1224   1.407       .  S
S1210      H1221   1.407       .  S
C1212      C1213   1.407       .  A
C1212      S1217   1.798       .  S
C1213      H1218   1.083       .  S
C1213      C1214   1.410       .  A
C1214      C1215   1.417       .  A
C1215      C1216   1.399       .  A
C1215      S1219   1.801       .  S
C1216      H1220   1.084       .  S
S1217      H1222   1.406       .  S
S1219      H1223   1.407       .  S
