geometry optimzed in LAMMPS
_audit_creation_date              2020-11-30 
_audit_creation_method            'lammps2cif' 
_symmetry_space_group_name_H-M    'P1' 
_symmetry_Int_Tables_number       1 
_symmetry_cell_setting            triclinic 
loop_ 
_symmetry_equiv_pos_as_xyz 
  x,y,z 
_cell_length_a                    35.24514957 
_cell_length_b                    55.57242060233194 
_cell_length_c                    86.3809742688404 
_cell_angle_alpha                 89.97851137384934 
_cell_angle_beta                  89.94713607861597 
_cell_angle_gamma                 89.99302038512252 
loop_ 
_atom_site_label 
_atom_site_type_symbol 
_atom_site_fract_x 
_atom_site_fract_y 
_atom_site_fract_z 
_atom_site_charge 
N1          N  0.31929319  0.62590109  0.21165739    -0.26100
N2          N  0.34990119  0.62538290  0.22052687    -0.34000
C3          C  0.33898054  0.62598812  0.23544770     0.02200
C4          C  0.29976466  0.62688562  0.23594143     0.08300
C5          C  0.28824026  0.62680918  0.22067805    -0.04800
H6          H  0.35821391  0.62567597  0.24519826     0.08900
H7          H  0.25941621  0.62730914  0.21639595     0.10100
Cu8        Cu  0.40540317  0.62379904  0.21227633     0.44200
Cu9        Cu  0.31964634  0.62527947  0.18772399     0.42000
Cu10       Cu  0.41128109  0.62305069  0.17061954     0.43900
N11         N  0.45660236  0.62292685  0.20024719    -0.33500
N12         N  0.45800794  0.62267615  0.18495811    -0.27700
C13         C  0.49432221  0.62219790  0.18035727    -0.03800
C14         C  0.51715397  0.62215170  0.19333005     0.08400
C15         C  0.49237298  0.62263082  0.20580318     0.02200
H16         H  0.50333136  0.62192410  0.16838492     0.09800
H17         H  0.49972668  0.62273501  0.21795835     0.08900
N18         N  0.36205813  0.62361062  0.15775598    -0.34900
N19         N  0.32790140  0.62446730  0.16404310    -0.27100
C20         C  0.30174555  0.62495211  0.15271488    -0.02400
C21         C  0.32065058  0.62433497  0.13872836     0.06300
C22         C  0.35873298  0.62351643  0.14226699     0.04400
H23         H  0.27140676  0.62589076  0.15454477     0.09500
H24         H  0.38228951  0.62310663  0.13422814     0.08300
N25         N  0.21731571  0.59737856  0.01905824    -0.26100
N26         N  0.21588160  0.58598473  0.03249613    -0.34000
C27         C  0.20383686  0.56331978  0.03014430     0.02200
C28         C  0.19735890  0.56046250  0.01451692     0.08300
C29         C  0.20622934  0.58225599  0.00778275    -0.04800
H30         H  0.20113856  0.54978138  0.03908332     0.08900
H31         H  0.20565543  0.58663953  0.99557883     0.10100
Cu32       Cu  0.23308571  0.60104739  0.05322892     0.44200
Cu33       Cu  0.23595229  0.63253985  0.01653009     0.42000
Cu34       Cu  0.27033487  0.66170928  0.05114567     0.43900
N35         N  0.25620499  0.61907985  0.07191906    -0.33500
N36         N  0.26998919  0.64118477  0.07111632    -0.27700
C37         C  0.28431581  0.64730543  0.08498019    -0.03800
C38         C  0.27917325  0.62813712  0.09488412     0.08400
C39         C  0.26141583  0.61050836  0.08632277     0.02200
H40         H  0.29808871  0.66424113  0.08753480     0.09800
H41         H  0.25360421  0.59263682  0.09013684     0.08900
N42         N  0.26784443  0.67840154  0.02977315    -0.34900
N43         N  0.25530083  0.66774845  0.01707911    -0.27100
C44         C  0.25695662  0.68344531  0.00523851    -0.02400
C45         C  0.27121102  0.70485499  0.01082992     0.06300
C46         C  0.27783263  0.70114858  0.02637299     0.04400
H47         H  0.24821481  0.67957185  0.99349612     0.09500
H48         H  0.28884897  0.71400924  0.03462688     0.08300
N49         N  0.75654780  0.62362086  0.21180033    -0.26100
N50         N  0.72582630  0.62433240  0.22062171    -0.34000
C51         C  0.73654279  0.62689476  0.23547883     0.02200
C52         C  0.77576066  0.62777056  0.23598664     0.08300
C53         C  0.78747455  0.62562993  0.22079621    -0.04800
H54         H  0.71717257  0.62802839  0.24517344     0.08900
H55         H  0.81635124  0.62563394  0.21654035     0.10100
Cu56       Cu  0.67046960  0.62215940  0.21232747     0.44200
Cu57       Cu  0.75648302  0.62029090  0.18792599     0.42000
Cu58       Cu  0.66496737  0.61847754  0.17068041     0.43900
N59         N  0.61941475  0.62135231  0.20025221    -0.33500
N60         N  0.61809469  0.62025746  0.18497666    -0.27700
C61         C  0.58178839  0.62040295  0.18037080    -0.03800
C62         C  0.55890202  0.62159860  0.19332844     0.08400
C63         C  0.58362919  0.62217222  0.20579181     0.02200
H64         H  0.57281733  0.61965293  0.16840884     0.09800
H65         H  0.57623443  0.62321521  0.21792963     0.08900
N66         N  0.71444789  0.61648209  0.15795075    -0.34900
N67         N  0.74854918  0.61717881  0.16427539    -0.27100
C68         C  0.77487050  0.61604877  0.15299876    -0.02400
C69         C  0.75614517  0.61451168  0.13900494     0.06300
C70         C  0.71798925  0.61486383  0.14249874     0.04400
H71         H  0.80521210  0.61667717  0.15485194     0.09500
H72         H  0.69453042  0.61438123  0.13443186     0.08300
N73         N  0.83352460  0.58411341  0.01651273    -0.26100
N74         N  0.83453971  0.57182262  0.02962578    -0.34000
C75         C  0.83888546  0.54831124  0.02637930     0.02200
C76         C  0.84078789  0.54585008  0.01051024     0.08300
C77         C  0.83719099  0.56876663  0.00457253    -0.04800
H78         H  0.83915792  0.53404875  0.03490885     0.08900
H79         H  0.83592967  0.57384966  0.99248983     0.10100
Cu80       Cu  0.82639635  0.58719108  0.05122548     0.44200
Cu81       Cu  0.82422151  0.62085461  0.01530315     0.42000
Cu82       Cu  0.80529588  0.65102355  0.05149218     0.43900
N83         N  0.81258489  0.60628604  0.07104381    -0.33500
N84         N  0.80482665  0.62957932  0.07109653    -0.27700
C85         C  0.79475105  0.63622591  0.08548590    -0.03800
C86         C  0.79635247  0.61617289  0.09485751     0.08400
C87         C  0.80760097  0.59746957  0.08541445     0.02200
H88         H  0.78572326  0.65413544  0.08873553     0.09800
H89         H  0.81069328  0.57874069  0.08859309     0.08900
N90         N  0.80551153  0.66832460  0.03026043    -0.34900
N91         N  0.81247532  0.65726494  0.01700223    -0.27100
C92         C  0.80979610  0.67326300  0.00536803    -0.02400
C93         C  0.80074624  0.69532316  0.01167288     0.06300
C94         C  0.79819104  0.69167035  0.02743136     0.04400
H95         H  0.81377524  0.66905861  0.99324427     0.09500
H96         H  0.79119778  0.70488036  0.03617966     0.08300
N97         N  0.25582803  0.89928448  0.77436202    -0.26100
N98         N  0.22514062  0.89964939  0.76553504    -0.34000
C99         C  0.23595370  0.90011015  0.75058916     0.02200
C100        C  0.27520342  0.90009651  0.75003007     0.08300
C101        C  0.28682379  0.89955996  0.76528604    -0.04800
H102        H  0.21662909  0.90056228  0.74087028     0.08900
H103        H  0.31569388  0.89944352  0.76952619     0.10100
Cu104      Cu  0.16972889  0.89965487  0.77395611     0.44200
Cu105      Cu  0.25558820  0.89864623  0.79834677     0.42000
Cu106      Cu  0.16395974  0.89804971  0.81568764     0.43900
N107        N  0.11861984  0.89855622  0.78604195    -0.33500
N108        N  0.11717336  0.89777555  0.80132644    -0.27700
C109        C  0.08083809  0.89664777  0.80587980    -0.03800
C110        C  0.05807742  0.89676032  0.79287826     0.08400
C111        C  0.08290052  0.89801727  0.78044984     0.02200
H112        H  0.07176264  0.89574985  0.81783195     0.09800
H113        H  0.07562062  0.89829317  0.76828828     0.08900
N114        N  0.21344009  0.89828582  0.82845228    -0.34900
N115        N  0.24756331  0.89843455  0.82210269    -0.27100
C116        C  0.27384480  0.89804925  0.83340062    -0.02400
C117        C  0.25507027  0.89767743  0.84743539     0.06300
C118        C  0.21692974  0.89781563  0.84393711     0.04400
H119        H  0.30419567  0.89774803  0.83151590     0.09500
H120        H  0.19344059  0.89727023  0.85200523     0.08300
N121        N  0.33478960  0.91955216  0.97028473    -0.26100
N122        N  0.33683387  0.93206249  0.95727797    -0.34000
C123        C  0.34230721  0.95539988  0.96071401     0.02200
C124        C  0.34386244  0.95756372  0.97659915     0.08300
C125        C  0.33889202  0.93461774  0.98235844    -0.04800
H126        H  0.34340531  0.96980056  0.95229180     0.08900
H127        H  0.33689784  0.92937090  0.99439678     0.10100
Cu128      Cu  0.32802465  0.91747771  0.93552251     0.44200
Cu129      Cu  0.32349607  0.88296506  0.97102839     0.42000
Cu130      Cu  0.30309408  0.85455548  0.93411395     0.43900
N131        N  0.31257986  0.89985437  0.91537520    -0.33500
N132        N  0.30326949  0.87681301  0.91487966    -0.27700
C133        C  0.29242670  0.87118485  0.90040460    -0.03800
C134        C  0.29517122  0.89166232  0.89144910     0.08400
C135        C  0.30787514  0.90953768  0.90122873     0.02200
H136        H  0.28219448  0.85370154  0.89681795     0.09800
H137        H  0.31218731  0.92831724  0.89843271     0.08900
N138        N  0.30345570  0.83640318  0.95505674    -0.34900
N139        N  0.31084259  0.84675379  0.96851451    -0.27100
C140        C  0.30841774  0.83014344  0.97980016    -0.02400
C141        C  0.29909990  0.80844809  0.97306372     0.06300
C142        C  0.29612838  0.81293295  0.95741426     0.04400
H143        H  0.31294584  0.83366169  0.99197917     0.09500
H144        H  0.28901572  0.80017831  0.94841185     0.08300
N145        N  0.81889583  0.89434929  0.77380155    -0.26100
N146        N  0.84965079  0.89622612  0.76507181    -0.34000
C147        C  0.83894639  0.89867116  0.75020465     0.02200
C148        C  0.79971181  0.89835268  0.74960689     0.08300
C149        C  0.78796840  0.89558644  0.76474988    -0.04800
H150        H  0.85833123  0.90069126  0.74057463     0.08900
H151        H  0.75907039  0.89463155  0.76893723     0.10100
Cu152      Cu  0.90500339  0.89577876  0.77351732     0.44200
Cu153      Cu  0.81888372  0.89049161  0.79762125     0.42000
Cu154      Cu  0.91019779  0.88949626  0.81504757     0.43900
N155        N  0.95595166  0.89492358  0.78569619    -0.33500
N156        N  0.95714715  0.89264918  0.80092050    -0.27700
C157        C  0.99338552  0.89292259  0.80561575    -0.03800
C158        C  0.01636790  0.89546728  0.79277092     0.08400
C159        C  0.99176667  0.89666542  0.78027979     0.02200
H160        H  0.00224153  0.89141436  0.81756329     0.09800
H161        H  0.99926565  0.89878481  0.76821013     0.08900
N162        N  0.86064707  0.88707268  0.82766330    -0.34900
N163        N  0.82662211  0.88741082  0.82126074    -0.27100
C164        C  0.80019274  0.88558525  0.83244939    -0.02400
C165        C  0.81878089  0.88404691  0.84646667     0.06300
C166        C  0.85695698  0.88503358  0.84308704     0.04400
H167        H  0.76987057  0.88539646  0.83050412     0.09500
H168        H  0.88032514  0.88431845  0.85119088     0.08300
N169        N  0.71465421  0.90553529  0.96637529    -0.26100
N170        N  0.71374626  0.91743164  0.95311210    -0.34000
C171        C  0.70324811  0.94030416  0.95583277     0.02200
C172        C  0.69723426  0.94279694  0.97151898     0.08300
C173        C  0.70477186  0.92055000  0.97790854    -0.04800
H174        H  0.70154739  0.95424587  0.94711344     0.08900
H175        H  0.70438454  0.91581087  0.99005899     0.10100
Cu176      Cu  0.73031859  0.90286922  0.93214094     0.44200
Cu177      Cu  0.73189019  0.86997835  0.96833024     0.42000
Cu178      Cu  0.76714594  0.84211159  0.93331899     0.43900
N179        N  0.75327237  0.88546412  0.91316127    -0.33500
N180        N  0.76694561  0.86330784  0.91361948    -0.27700
C181        C  0.78134277  0.85769807  0.89966194    -0.03800
C182        C  0.77634666  0.87725824  0.89006119     0.08400
C183        C  0.75862508  0.89458133  0.89890338     0.02200
H184        H  0.79513208  0.84086069  0.89685086     0.09800
H185        H  0.75100946  0.91263286  0.89538858     0.08900
N186        N  0.76462433  0.82472017  0.95448128    -0.34900
N187        N  0.75165170  0.83486283  0.96728916    -0.27100
C188        C  0.75375497  0.81886956  0.97895229    -0.02400
C189        C  0.76874552  0.79779942  0.97313416     0.06300
C190        C  0.77534686  0.80201659  0.95763573     0.04400
H191        H  0.74502644  0.82235759  0.99075313     0.09500
H192        H  0.78701584  0.78956650  0.94926192     0.08300
N193        N  0.25894585  0.39846495  0.77410280    -0.26100
N194        N  0.28967151  0.39902252  0.76528126    -0.34000
C195        C  0.27893815  0.39943069  0.75033761     0.02200
C196        C  0.23970193  0.39917565  0.74977940     0.08300
C197        C  0.22799585  0.39856128  0.76502811    -0.04800
H198        H  0.29830729  0.39994444  0.74062048     0.08900
H199        H  0.19910742  0.39819815  0.76926395     0.10100
Cu200      Cu  0.34501163  0.39916461  0.77369256     0.44200
Cu201      Cu  0.25905052  0.39758203  0.79806273     0.42000
Cu202      Cu  0.35039540  0.39597275  0.81543405     0.43900
N203        N  0.39596609  0.39787226  0.78581270    -0.33500
N204        N  0.39726650  0.39646576  0.80108054    -0.27700
C205        C  0.43356819  0.39538925  0.80564818    -0.03800
C206        C  0.45645393  0.39618886  0.79267756     0.08400
C207        C  0.43174529  0.39779369  0.78024826     0.02200
H208        H  0.44253636  0.39407258  0.81759091     0.09800
H209        H  0.43914256  0.39862001  0.76810319     0.08900
N210        N  0.30082478  0.39613122  0.82818391    -0.34900
N211        N  0.26678488  0.39674115  0.82180049    -0.27100
C212        C  0.24035629  0.39647294  0.83305754    -0.02400
C213        C  0.25894429  0.39568816  0.84710729     0.06300
C214        C  0.29713363  0.39546561  0.84366144     0.04400
H215        H  0.21002618  0.39663449  0.83113357     0.09500
H216        H  0.32050821  0.39467892  0.85175934     0.08300
N217        N  0.18134629  0.41941364  0.96998717    -0.26100
N218        N  0.17908894  0.43187606  0.95696643    -0.34000
C219        C  0.17419398  0.45527130  0.96039189     0.02200
C220        C  0.17323607  0.45751407  0.97628050     0.08300
C221        C  0.17795729  0.43456416  0.98205256    -0.04800
H222        H  0.17314729  0.46964708  0.95195161     0.08900
H223        H  0.18036256  0.42936640  0.99408566     0.10100
Cu224      Cu  0.18695869  0.41717156  0.93517542     0.44200
Cu225      Cu  0.19232081  0.38280064  0.97082146     0.42000
Cu226      Cu  0.21106360  0.35408711  0.93397130     0.43900
N227        N  0.20142306  0.39917421  0.91502952    -0.33500
N228        N  0.21033261  0.37606344  0.91462197    -0.27700
C229        C  0.22077858  0.37016071  0.90013985    -0.03800
C230        C  0.21820439  0.39052561  0.89108098     0.08400
C231        C  0.20601013  0.40863025  0.90080845     0.02200
H232        H  0.23079486  0.35258466  0.89662911     0.09800
H233        H  0.20210173  0.42741662  0.89793417     0.08900
N234        N  0.21224573  0.33616427  0.95497631    -0.34900
N235        N  0.20543389  0.34663907  0.96844688    -0.27100
C236        C  0.20905832  0.33023564  0.97980302    -0.02400
C237        C  0.21856143  0.30854273  0.97309177     0.06300
C238        C  0.22039649  0.31281956  0.95738792     0.04400
H239        H  0.20530869  0.33390540  0.99201058     0.09500
H240        H  0.22738150  0.30002441  0.94838680     0.08300
N241        N  0.69580467  0.39399797  0.77388777    -0.26100
N242        N  0.66518332  0.39626043  0.76513978    -0.34000
C243        C  0.67607920  0.39868742  0.75029009     0.02200
C244        C  0.71530058  0.39797440  0.74972101     0.08300
C245        C  0.72684496  0.39499286  0.76486320    -0.04800
H246        H  0.65682935  0.40092564  0.74064902     0.08900
H247        H  0.75567651  0.39365372  0.76906191     0.10100
Cu248      Cu  0.60973294  0.39618375  0.77349745     0.44200
Cu249      Cu  0.69548528  0.38975779  0.79768055     0.42000
Cu250      Cu  0.60405629  0.38843984  0.81494557     0.43900
N251        N  0.55867048  0.39501754  0.78560361    -0.33500
N252        N  0.55730576  0.39215890  0.80078636    -0.27700
C253        C  0.52101196  0.39217666  0.80543405    -0.03800
C254        C  0.49817346  0.39515027  0.79260296     0.08400
C255        C  0.52291320  0.39688854  0.78016675     0.02200
H256        H  0.51201703  0.39014239  0.81733833     0.09800
H257        H  0.51554408  0.39938183  0.76811841     0.08900
N258        N  0.65341943  0.38585687  0.82765515    -0.34900
N259        N  0.68751368  0.38634401  0.82129491    -0.27100
C260        C  0.71383551  0.38463765  0.83251349    -0.02400
C261        C  0.69512210  0.38301882  0.84651404     0.06300
C262        C  0.65696105  0.38383584  0.84308744     0.04400
H263        H  0.74418165  0.38469851  0.83060615     0.09500
H264        H  0.63351336  0.38314276  0.85117097     0.08300
N265        N  0.80068152  0.40673552  0.96610172    -0.26100
N266        N  0.80147345  0.41855449  0.95280756    -0.34000
C267        C  0.81289903  0.44128468  0.95542559     0.02200
C268        C  0.81963969  0.44371216  0.97107141     0.08300
C269        C  0.81156335  0.42161382  0.97753697    -0.04800
H270        H  0.81496216  0.45514692  0.94666622     0.08900
H271        H  0.81246981  0.41685457  0.98967942     0.10100
Cu272      Cu  0.78418544  0.40388306  0.93193655     0.44200
Cu273      Cu  0.78296669  0.37138181  0.96830558     0.42000
Cu274      Cu  0.74809236  0.34288342  0.93356593     0.43900
N275        N  0.76117731  0.38604770  0.91310764    -0.33500
N276        N  0.74784012  0.36381716  0.91374441    -0.27700
C277        C  0.73336223  0.35789786  0.89986431    -0.03800
C278        C  0.73792206  0.37732616  0.89011644     0.08400
C279        C  0.75550800  0.39489607  0.89879791     0.02200
H280        H  0.71979173  0.34093522  0.89720682     0.09800
H281        H  0.76281398  0.41293102  0.89513849     0.08900
N282        N  0.75112851  0.32572889  0.95480008    -0.34900
N283        N  0.76392720  0.33616708  0.96752462    -0.27100
C284        C  0.76257712  0.32028375  0.97926145    -0.02400
C285        C  0.74824945  0.29896103  0.97358242     0.06300
C286        C  0.74126000  0.30291339  0.95808545     0.04400
H287        H  0.77151521  0.32398902  0.99100207     0.09500
H288        H  0.73003690  0.29018690  0.94979251     0.08300
N289        N  0.19826007  0.12325283  0.21155200    -0.26100
N290        N  0.16758303  0.12245116  0.22039063    -0.34000
C291        C  0.17834358  0.12268768  0.23532749     0.02200
C292        C  0.21754853  0.12362681  0.23586588     0.08300
C293        C  0.22922282  0.12396422  0.22060951    -0.04800
H294        H  0.15901421  0.12209523  0.24505546     0.08900
H295        H  0.25808398  0.12465654  0.21635865     0.10100
Cu296      Cu  0.11227316  0.12083072  0.21202275     0.44200
Cu297      Cu  0.19793332  0.12334709  0.18760589     0.42000
Cu298      Cu  0.10633168  0.12140305  0.17031305     0.43900
N299        N  0.06119003  0.11933611  0.20000741    -0.33500
N300        N  0.05967666  0.11951721  0.18471876    -0.27700
C301        C  0.02335723  0.11827992  0.18019294    -0.03800
C302        C  0.00067720  0.11731217  0.19321965     0.08400
C303        C  0.02553069  0.11802921  0.20563522     0.02200
H304        H  0.01422968  0.11816943  0.16824084     0.09800
H305        H  0.01830583  0.11759407  0.21780569     0.08900
N306        N  0.15579906  0.12268392  0.15754378    -0.34900
N307        N  0.18986659  0.12336284  0.16390127    -0.27100
C308        C  0.21619204  0.12422469  0.15262658    -0.02400
C309        C  0.19752080  0.12405076  0.13859580     0.06300
C310        C  0.15937762  0.12308664  0.14205860     0.04400
H311        H  0.24650375  0.12507655  0.15452524     0.09500
H312        H  0.13595282  0.12284753  0.13397088     0.08300
N313        N  0.30468137  0.09806818  0.01930753    -0.26100
N314        N  0.30556884  0.08666032  0.03274816    -0.34000
C315        C  0.31704445  0.06386479  0.03041981     0.02200
C316        C  0.32372885  0.06092595  0.01480623     0.08300
C317        C  0.31555879  0.08281943  0.00805521    -0.04800
H318        H  0.31912213  0.05028458  0.03935843     0.08900
H319        H  0.31637406  0.08717644  0.99584903     0.10100
Cu320      Cu  0.28811819  0.10183996  0.05344042     0.44200
Cu321      Cu  0.28677465  0.13339230  0.01674830     0.42000
Cu322      Cu  0.25149105  0.16255748  0.05135829     0.43900
N323        N  0.26442539  0.11976472  0.07208944    -0.33500
N324        N  0.25081136  0.14191230  0.07128998    -0.27700
C325        C  0.23587921  0.14792145  0.08508434    -0.03800
C326        C  0.24044907  0.12863052  0.09494225     0.08400
C327        C  0.25850662  0.11105526  0.08641872     0.02200
H328        H  0.22207294  0.16486011  0.08761696     0.09800
H329        H  0.26601880  0.09311792  0.09020113     0.08900
N330        N  0.25475224  0.17927675  0.02999685    -0.34900
N331        N  0.26759737  0.16865710  0.01732783    -0.27100
C332        C  0.26599104  0.18434696  0.00548035    -0.02400
C333        C  0.25146770  0.20571411  0.01104111     0.06300
C334        C  0.24462194  0.20198693  0.02656952     0.04400
H335        H  0.27474376  0.18045442  0.99373503     0.09500
H336        H  0.23314892  0.21476988  0.03477911     0.08300
N337        N  0.76146711  0.11820269  0.21202004    -0.26100
N338        N  0.79211718  0.11895382  0.22086241    -0.34000
C339        C  0.78125436  0.12161168  0.23570692     0.02200
C340        C  0.74202641  0.12250921  0.23617900     0.08300
C341        C  0.73046577  0.12029207  0.22098545    -0.04800
H342        H  0.80052725  0.12278178  0.24541764     0.08900
H343        H  0.70163155  0.12028108  0.21670431     0.10100
Cu344      Cu  0.84757268  0.11661931  0.21261574     0.44200
Cu345      Cu  0.76153106  0.11476442  0.18814579     0.42000
Cu346      Cu  0.85281794  0.11212814  0.17094935     0.43900
N347        N  0.89854593  0.11540551  0.20043333    -0.33500
N348        N  0.89973996  0.11395595  0.18516619    -0.27700
C349        C  0.93599023  0.11425098  0.18046399    -0.03800
C350        C  0.95898214  0.11592476  0.19334490     0.08400
C351        C  0.93437785  0.11658616  0.20586897     0.02200
H352        H  0.94484185  0.11347277  0.16848114     0.09800
H353        H  0.94187809  0.11815083  0.21796740     0.08900
N354        N  0.80346796  0.11114676  0.15813874    -0.34900
N355        N  0.76935039  0.11216885  0.16444960    -0.27100
C356        C  0.74311592  0.11210586  0.15313113    -0.02400
C357        C  0.76192978  0.11094124  0.13912101     0.06300
C358        C  0.80004121  0.11038223  0.14265822     0.04400
H359        H  0.71280652  0.11333997  0.15496897     0.09500
H360        H  0.82357040  0.11000151  0.13460574     0.08300
N361        N  0.69012234  0.08455067  0.01603317    -0.26100
N362        N  0.68759360  0.07232605  0.02913684    -0.34000
C363        C  0.68265514  0.04887962  0.02587380     0.02200
C364        C  0.68197137  0.04636535  0.00999961     0.08300
C365        C  0.68687368  0.06920303  0.00406767    -0.04800
H366        H  0.68099193  0.03468028  0.03442096     0.08900
H367        H  0.68907640  0.07422770  0.99199611     0.10100
Cu368      Cu  0.69425868  0.08760845  0.05082118     0.44200
Cu369      Cu  0.70017357  0.12123465  0.01503635     0.42000
Cu370      Cu  0.71491913  0.15127774  0.05181225     0.43900
N371        N  0.70708186  0.10617955  0.07092272    -0.33500
N372        N  0.71470517  0.12947827  0.07128236    -0.27700
C373        C  0.72433442  0.13571404  0.08579967    -0.03800
C374        C  0.72255952  0.11536754  0.09492151     0.08400
C375        C  0.71169437  0.09694354  0.08519660     0.02200
H376        H  0.73326215  0.15352453  0.08929986     0.09800
H377        H  0.70869743  0.07810670  0.08811718     0.08900
N378        N  0.71627041  0.16870172  0.03060306    -0.34900
N379        N  0.71099211  0.15770342  0.01719354    -0.27100
C380        C  0.71409322  0.17388583  0.00568501    -0.02400
C381        C  0.72166167  0.19599411  0.01221686     0.06300
C382        C  0.72289839  0.19219428  0.02798569     0.04400
H383        H  0.71116617  0.16980348  0.99349663     0.09500
H384        H  0.72834077  0.20543089  0.03689399     0.08300
N385        N  0.69790150  0.12980655  0.27398153    -0.26100
N386        N  0.66734735  0.12754902  0.26519067    -0.34000
C387        C  0.67838472  0.12473475  0.25038724     0.02200
C388        C  0.71762111  0.12518208  0.24988262     0.08300
C389        C  0.72903278  0.12842436  0.26502203    -0.04800
H390        H  0.65921202  0.12237792  0.24073378     0.08900
H391        H  0.75783816  0.12964184  0.26926455     0.10100
Cu392      Cu  0.61173166  0.12800624  0.27339902     0.44200
Cu393      Cu  0.69738127  0.13444653  0.29776527     0.42000
Cu394      Cu  0.60569781  0.13650024  0.31472120     0.43900
N395        N  0.56051670  0.12931561  0.28541790    -0.33500
N396        N  0.55909286  0.13243205  0.30057549    -0.27700
C397        C  0.52281931  0.13229422  0.30523206    -0.03800
C398        C  0.50001978  0.12898133  0.29243387     0.08400
C399        C  0.52477423  0.12716981  0.28000028     0.02200
H400        H  0.51381830  0.13444076  0.31712648     0.09800
H401        H  0.51742917  0.12437036  0.26797858     0.08900
N402        N  0.65475932  0.13904485  0.32757040    -0.34900
N403        N  0.68899460  0.13825332  0.32135253    -0.27100
C404        C  0.71504555  0.13996290  0.33267941    -0.02400
C405        C  0.69597757  0.14190443  0.34658894     0.06300
C406        C  0.65791460  0.14127196  0.34299965     0.04400
H407        H  0.74543793  0.13969803  0.33090869     0.09500
H408        H  0.63426246  0.14222848  0.35097225     0.08300
N409        N  0.80058492  0.11996301  0.46646444    -0.26100
N410        N  0.80221601  0.10830890  0.45312805    -0.34000
C411        C  0.81442513  0.08573179  0.45569513     0.02200
C412        C  0.82081640  0.08320726  0.47135407     0.08300
C413        C  0.81170415  0.10510192  0.47788514    -0.04800
H414        H  0.81714996  0.07199655  0.44688895     0.08900
H415        H  0.81199851  0.10969954  0.49005618     0.05300
Cu416      Cu  0.78469764  0.12279627  0.43225563     0.44200
Cu417      Cu  0.78133048  0.15503135  0.46869083     0.42000
Cu418      Cu  0.74550972  0.18293846  0.43383601     0.43900
N419        N  0.76074376  0.14005092  0.41341996    -0.33500
N420        N  0.74616667  0.16196654  0.41403206    -0.27700
C421        C  0.73144588  0.16754408  0.40013126    -0.03800
C422        C  0.73717375  0.14821960  0.39040312     0.08400
C423        C  0.75567746  0.13106662  0.39911491     0.02200
H424        H  0.71705943  0.18422151  0.39742864     0.09800
H425        H  0.76411943  0.11322930  0.39546695     0.08900
N426        N  0.74797428  0.20021118  0.45504394    -0.34900
N427        N  0.76106257  0.19001127  0.46780749    -0.27100
C428        C  0.75918908  0.20596581  0.47949125    -0.02400
C429        C  0.74421435  0.22707797  0.47373641     0.06300
C430        C  0.73740796  0.22292695  0.45825007     0.04400
H431        H  0.76825256  0.20246422  0.49124354     0.09500
H432        H  0.72586127  0.23546471  0.44990519     0.08300
N433        N  0.26089328  0.12451045  0.27404004    -0.26100
N434        N  0.29164086  0.12408985  0.26523337    -0.34000
C435        C  0.28096443  0.12378642  0.25028411     0.02200
C436        C  0.24173265  0.12397744  0.24971061     0.08300
C437        C  0.22997045  0.12443448  0.26495356    -0.04800
H438        H  0.30036677  0.12340264  0.24057582     0.08900
H439        H  0.20106845  0.12470477  0.26917707     0.10100
Cu440      Cu  0.34688826  0.12405744  0.27370095     0.44200
Cu441      Cu  0.26103873  0.12519045  0.29798733     0.42000
Cu442      Cu  0.35242247  0.12661558  0.31547354     0.43900
N443        N  0.39783719  0.12551937  0.28578611    -0.33500
N444        N  0.39922663  0.12671850  0.30105971    -0.27700
C445        C  0.43554658  0.12804106  0.30557714    -0.03800
C446        C  0.45833180  0.12760056  0.29256593     0.08400
C447        C  0.43355551  0.12595968  0.28016847     0.02200
H448        H  0.44459831  0.12926376  0.31751291     0.09800
H449        H  0.44085660  0.12537333  0.26800828     0.08900
N450        N  0.30271281  0.12625054  0.32815371    -0.34900
N451        N  0.26872473  0.12576526  0.32171746    -0.27100
C452        C  0.24218799  0.12615758  0.33292515    -0.02400
C453        C  0.26062758  0.12688871  0.34700297     0.06300
C454        C  0.29886055  0.12694873  0.34362604     0.04400
H455        H  0.21187827  0.12623796  0.33094478     0.09500
H456        H  0.32214886  0.12778979  0.35176219     0.08300
N457        N  0.18033124  0.10479941  0.46940167    -0.26100
N458        N  0.17774415  0.09231326  0.45641059    -0.34000
C459        C  0.17338143  0.06888482  0.45988196     0.02200
C460        C  0.17312565  0.06664012  0.47577941     0.08300
C461        C  0.17769819  0.08963361  0.48149945    -0.04800
H462        H  0.17229369  0.05449564  0.45145896     0.08900
H463        H  0.18052262  0.09485746  0.49350985     0.10100
Cu464      Cu  0.18490866  0.10714070  0.43461530     0.44200
Cu465      Cu  0.19062981  0.14151699  0.47006207     0.42000
Cu466      Cu  0.20839389  0.17051063  0.43318210     0.43900
N467        N  0.20012220  0.12500662  0.41451327    -0.33500
N468        N  0.20892743  0.14813344  0.41400693    -0.27700
C469        C  0.22024324  0.15376988  0.39958265    -0.03800
C470        C  0.21833765  0.13321585  0.39067844     0.08400
C471        C  0.20563065  0.11528895  0.40042868     0.02200
H472        H  0.23037870  0.17129576  0.39602023     0.09800
H473        H  0.20202803  0.09643609  0.39768089     0.08900
N474        N  0.20843577  0.18852732  0.45417525    -0.34900
N475        N  0.20207175  0.17792375  0.46764682    -0.27100
C476        C  0.20484123  0.19438996  0.47899997    -0.02400
C477        C  0.21330374  0.21627036  0.47229564     0.06300
C478        C  0.21542882  0.21202582  0.45659007     0.04400
H479        H  0.20127386  0.19063221  0.49120713     0.09500
H480        H  0.22191780  0.22494399  0.44759461     0.08300
N481        N  0.19613621  0.39989760  0.71162745    -0.26100
N482        N  0.16545728  0.40070301  0.72047264    -0.34000
C483        C  0.17625921  0.40051424  0.73540853     0.02200
C484        C  0.21547186  0.39959438  0.73594117     0.08300
C485        C  0.22711169  0.39923337  0.72068175    -0.04800
H486        H  0.15694667  0.40107338  0.74514276     0.08900
H487        H  0.25596532  0.39850352  0.71642501     0.10100
Cu488      Cu  0.11000385  0.40209455  0.71216275     0.44200
Cu489      Cu  0.19597917  0.39961294  0.68766872     0.42000
Cu490      Cu  0.10438185  0.40143864  0.67049514     0.43900
N491        N  0.05887611  0.40317829  0.70010450    -0.33500
N492        N  0.05753889  0.40299061  0.68481360    -0.27700
C493        C  0.02125664  0.40395510  0.68020885    -0.03800
C494        C  0.99837930  0.40475055  0.69318013     0.08400
C495        C  0.02310512  0.40421072  0.70565414     0.02200
H496        H  0.01228811  0.40402000  0.66823657     0.09800
H497        H  0.01571362  0.40461536  0.71780839     0.08900
N498        N  0.15372930  0.40016686  0.65764786    -0.34900
N499        N  0.18784908  0.39949120  0.66395696    -0.27100
C500        C  0.21407365  0.39860828  0.65263994    -0.02400
C501        C  0.19527334  0.39876223  0.63863283     0.06300
C502        C  0.15716323  0.39974370  0.64215730     0.04400
H503        H  0.24440526  0.39778787  0.65449185     0.09500
H504        H  0.13366118  0.39999992  0.63410702     0.08300
N505        N  0.29844049  0.42669421  0.51901303    -0.26100
N506        N  0.30010714  0.43792894  0.53249941    -0.34000
C507        C  0.31191526  0.46066381  0.53018876     0.02200
C508        C  0.31798449  0.46373209  0.51454299     0.08300
C509        C  0.30912790  0.44199233  0.50775639    -0.04800
H510        H  0.31477602  0.47409592  0.53917699     0.08900
H511        H  0.30949299  0.43774792  0.49553245     0.10100
Cu512      Cu  0.28362837  0.42258415  0.55328621     0.44200
Cu513      Cu  0.28018653  0.39147021  0.51633339     0.42000
Cu514      Cu  0.24845997  0.36150839  0.55106821     0.43900
N515        N  0.26107475  0.40414968  0.57197834    -0.33500
N516        N  0.24812527  0.38184798  0.57113517    -0.27700
C517        C  0.23369439  0.37550438  0.58495975    -0.03800
C518        C  0.23788406  0.39473448  0.59488657     0.08400
C519        C  0.25520554  0.41262374  0.58636786     0.02200
H520        H  0.22035793  0.35840113  0.58745445     0.09800
H521        H  0.26216740  0.43062510  0.59018934     0.08900
N522        N  0.24981421  0.34517679  0.52954506    -0.34900
N523        N  0.26129673  0.35614126  0.51677999    -0.27100
C524        C  0.25869363  0.34072016  0.50482006    -0.02400
C525        C  0.24492706  0.31915589  0.51040898     0.06300
C526        C  0.23958205  0.32250290  0.52607361     0.04400
H527        H  0.26634855  0.34490553  0.49298774     0.09500
H528        H  0.22911379  0.30947189  0.53434946     0.08300
N529        N  0.75897391  0.40379238  0.71175735    -0.26100
N530        N  0.78965663  0.40307688  0.72057654    -0.34000
C531        C  0.77884948  0.40080212  0.73545091     0.02200
C532        C  0.73961731  0.40013012  0.73596285     0.08300
C533        C  0.72798832  0.40206750  0.72076287    -0.04800
H534        H  0.79816103  0.39979495  0.74515688     0.08900
H535        H  0.69912862  0.40219909  0.71651047     0.10100
Cu536      Cu  0.84503976  0.40514789  0.71224927     0.44200
Cu537      Cu  0.75912241  0.40699830  0.68789456     0.42000
Cu538      Cu  0.85055528  0.41005759  0.67061018     0.43900
N539        N  0.89610181  0.40635861  0.70014212    -0.33500
N540        N  0.89746470  0.40794655  0.68488139    -0.27700
C541        C  0.93379579  0.40771244  0.68026183    -0.03800
C542        C  0.95664163  0.40594806  0.69319357     0.08400
C543        C  0.93186295  0.40515590  0.70565437     0.02200
H544        H  0.94281571  0.40866363  0.66830467     0.09800
H545        H  0.93920141  0.40354558  0.71776763     0.08900
N546        N  0.80097640  0.41145656  0.65789519    -0.34900
N547        N  0.76692046  0.41023787  0.66425351    -0.27100
C548        C  0.74053084  0.41088283  0.65300875    -0.02400
C549        C  0.75913988  0.41264522  0.63898775     0.06300
C550        C  0.79732015  0.41293271  0.64243967     0.04400
H551        H  0.71023320  0.40973403  0.65490217     0.09500
H552        H  0.82072830  0.41369505  0.63434003     0.08300
N553        N  0.68722060  0.44200287  0.51621138    -0.26100
N554        N  0.68396700  0.45408887  0.52934000    -0.34000
C555        C  0.67894438  0.47755146  0.52611093     0.02200
C556        C  0.67895202  0.48019647  0.51023752     0.08300
C557        C  0.68435727  0.45744185  0.50427848    -0.04800
H558        H  0.67684947  0.49167808  0.53468587     0.08900
H559        H  0.68723247  0.45254046  0.49221148     0.10100
Cu560      Cu  0.68999463  0.43864409  0.55103327     0.44200
Cu561      Cu  0.69766795  0.40538526  0.51502378     0.42000
Cu562      Cu  0.71122651  0.37497510  0.55157564     0.43900
N563        N  0.70284850  0.41970496  0.57101684    -0.33500
N564        N  0.71071873  0.39643099  0.57117428    -0.27700
C565        C  0.72050918  0.38991276  0.58561897    -0.03800
C566        C  0.71860772  0.41003522  0.59491823     0.08400
C567        C  0.70747377  0.42864093  0.58536949     0.02200
H568        H  0.72972459  0.37207384  0.58894253     0.09800
H569        H  0.70441114  0.44740819  0.58845153     0.08900
N570        N  0.71238271  0.35763058  0.53036174    -0.34900
N571        N  0.70759191  0.36878881  0.51697571    -0.27100
C572        C  0.71024873  0.35264377  0.50543054    -0.02400
C573        C  0.71699850  0.33038456  0.51192623     0.06300
C574        C  0.71823403  0.33407186  0.52770440     0.04400
H575        H  0.70755709  0.35684613  0.49324798     0.09500
H576        H  0.72315593  0.32071036  0.53659287     0.08300
N577        N  0.25612962  0.62784427  0.27407778    -0.26100
N578        N  0.22542574  0.62744686  0.26526660    -0.34000
C579        C  0.23620387  0.62721716  0.25031839     0.02200
C580        C  0.27544607  0.62742971  0.24975989     0.08300
C581        C  0.28710412  0.62784265  0.26500282    -0.04800
H582        H  0.21687021  0.62678169  0.24060257     0.08900
H583        H  0.31597763  0.62801748  0.26923842     0.10100
Cu584      Cu  0.17011232  0.62715432  0.27373923     0.44200
Cu585      Cu  0.25601065  0.62812510  0.29801789     0.42000
Cu586      Cu  0.16472036  0.62910311  0.31554231     0.43900
N587        N  0.11917605  0.62832792  0.28591190    -0.33500
N588        N  0.11782536  0.62926149  0.30119580    -0.27700
C589        C  0.08150315  0.63046314  0.30576756    -0.03800
C590        C  0.05867571  0.63024869  0.29278080     0.08400
C591        C  0.08343730  0.62884914  0.28034390     0.02200
H592        H  0.07247932  0.63150335  0.31772085     0.09800
H593        H  0.07610717  0.62848721  0.26818848     0.08900
N594        N  0.21441939  0.62863012  0.32820711    -0.34900
N595        N  0.24841420  0.62826450  0.32175068    -0.27100
C596        C  0.27494732  0.62837341  0.33294462    -0.02400
C597        C  0.25648773  0.62879956  0.34703774     0.06300
C598        C  0.21825781  0.62897968  0.34368123     0.04400
H599        H  0.30525930  0.62841599  0.33094801     0.09500
H600        H  0.19495958  0.62959625  0.35183850     0.08300
N601        N  0.33417553  0.60483392  0.46983413    -0.26100
N602        N  0.33586960  0.59229863  0.45683526    -0.34000
C603        C  0.34039010  0.56888175  0.46029488     0.02200
C604        C  0.34169183  0.56670642  0.47618543     0.08300
C605        C  0.33756213  0.58971865  0.48192233    -0.04800
H606        H  0.34101866  0.55446308  0.45188438     0.08900
H607        H  0.33561113  0.59499864  0.49395349     0.10100
Cu608      Cu  0.32794745  0.60706128  0.43506148     0.44200
Cu609      Cu  0.32405684  0.64153272  0.47058452     0.42000
Cu610      Cu  0.30440312  0.67031391  0.43380457     0.43900
N611        N  0.31386791  0.62515947  0.41490826    -0.33500
N612        N  0.30512327  0.64829691  0.41447960    -0.27700
C613        C  0.29492586  0.65423096  0.39997809    -0.03800
C614        C  0.29748402  0.63386033  0.39093169     0.08400
C615        C  0.30941540  0.61572157  0.40068404     0.02200
H616        H  0.28506022  0.67183141  0.39644612     0.09800
H617        H  0.31319544  0.59692062  0.39782670     0.08900
N618        N  0.30444783  0.68828997  0.45479323    -0.34900
N619        N  0.31170114  0.67778676  0.46821648    -0.27100
C620        C  0.30929739  0.69427570  0.47956483    -0.02400
C621        C  0.30012981  0.71605933  0.47290503     0.06300
C622        C  0.29721367  0.71175002  0.45723378     0.04400
H623        H  0.31376355  0.69061865  0.49173252     0.09500
H624        H  0.29027120  0.72462274  0.44827208     0.08300
N625        N  0.81933034  0.63491810  0.27386935    -0.26100
N626        N  0.85000379  0.63236946  0.26515688    -0.34000
C627        C  0.83919409  0.62961673  0.25032820     0.02200
C628        C  0.79998292  0.63038721  0.24972850     0.08300
C629        C  0.78834885  0.63377216  0.26483545    -0.04800
H630        H  0.85849360  0.62700294  0.24072971     0.08900
H631        H  0.75948679  0.63517431  0.26901206     0.10100
Cu632      Cu  0.90545698  0.63211121  0.27351539     0.44200
Cu633      Cu  0.81944481  0.63927971  0.29767341     0.42000
Cu634      Cu  0.91089990  0.63823141  0.31496306     0.43900
N635        N  0.95653501  0.63249291  0.28562423    -0.33500
N636        N  0.95779631  0.63474628  0.30084600    -0.27700
C637        C  0.99403663  0.63429065  0.30553182    -0.03800
C638        C  0.01696722  0.63163914  0.29268322     0.08400
C639        C  0.99232246  0.63056719  0.28019670     0.02200
H640        H  0.00293179  0.63578755  0.31747412     0.09800
H641        H  0.99977856  0.62846758  0.26812201     0.08900
N642        N  0.86159196  0.64117203  0.32769026    -0.34900
N643        N  0.82750384  0.64167569  0.32134758    -0.27100
C644        C  0.80128069  0.64352935  0.33261918    -0.02400
C645        C  0.82006969  0.64419855  0.34662544     0.06300
C646        C  0.85815239  0.64267727  0.34314923     0.04400
H647        H  0.77095266  0.64425142  0.33074216     0.09500
H648        H  0.88162753  0.64262407  0.35121424     0.08300
N649        N  0.71753012  0.62019028  0.46665234    -0.26100
N650        N  0.71594191  0.60865840  0.45327269    -0.34000
C651        C  0.70446857  0.58591215  0.45579793     0.02200
C652        C  0.69852850  0.58315603  0.47147659     0.08300
C653        C  0.70712103  0.60508782  0.47805807    -0.04800
H654        H  0.70191174  0.57224225  0.44694375     0.08900
H655        H  0.70693532  0.60956517  0.49024822     0.10100
Cu656      Cu  0.73249472  0.62360828  0.43238507     0.44200
Cu657      Cu  0.73575190  0.65545090  0.46894761     0.42000
Cu658      Cu  0.76920177  0.68428690  0.43393799     0.43900
N659        N  0.75527033  0.64134828  0.41346896    -0.33500
N660        N  0.76889223  0.66350549  0.41406551    -0.27700
C661        C  0.78318832  0.66938175  0.40013149    -0.03800
C662        C  0.77818965  0.64999234  0.39039477     0.08400
C663        C  0.76055512  0.63249659  0.39913881     0.02200
H664        H  0.79691707  0.68628169  0.39742561     0.09800
H665        H  0.75295142  0.61450575  0.39550495     0.08900
N666        N  0.76704611  0.70120094  0.45525845    -0.34900
N667        N  0.75487329  0.69067755  0.46807347    -0.27100
C668        C  0.75681619  0.70650022  0.47982706    -0.02400
C669        C  0.77087075  0.72785851  0.47405720     0.06300
C670        C  0.77707324  0.72399287  0.45849783     0.04400
H671        H  0.74844143  0.70273674  0.49163711     0.09500
H672        H  0.78787625  0.73676717  0.45012839     0.08300
N673        N  0.75627338  0.90503612  0.71167048    -0.26100
N674        N  0.72555912  0.90415196  0.72048800    -0.34000
C675        C  0.73629374  0.90152556  0.73533667     0.02200
C676        C  0.77551721  0.90077998  0.73584442     0.08300
C677        C  0.78722135  0.90304823  0.72065969    -0.04800
H678        H  0.71693197  0.90035239  0.74503247     0.08900
H679        H  0.81610355  0.90328139  0.71641277     0.10100
Cu680      Cu  0.67020507  0.90658933  0.71222724     0.44200
Cu681      Cu  0.75611561  0.90894900  0.68783773     0.42000
Cu682      Cu  0.66455906  0.91308692  0.67071161     0.43900
N683        N  0.61910397  0.90862868  0.70024526    -0.33500
N684        N  0.61769235  0.91081102  0.68501762    -0.27700
C685        C  0.58134221  0.91100188  0.68045676    -0.03800
C686        C  0.55853598  0.90889904  0.69339573     0.08400
C687        C  0.58335480  0.90746613  0.70579931     0.02200
H688        H  0.57228313  0.91244011  0.66853116     0.09800
H689        H  0.57605059  0.90540751  0.71789326     0.08900
N690        N  0.71411057  0.91451755  0.65795874    -0.34900
N691        N  0.74818416  0.91289835  0.66424159    -0.27100
C692        C  0.77449123  0.91345584  0.65294185    -0.02400
C693        C  0.75580848  0.91558292  0.63897023     0.06300
C694        C  0.71767434  0.91617267  0.64250603     0.04400
H695        H  0.80476118  0.91187021  0.65475586     0.09500
H696        H  0.69421483  0.91712610  0.63445655     0.08300
N697        N  0.83231911  0.94229104  0.51611615    -0.26100
N698        N  0.83452910  0.95453710  0.52921325    -0.34000
C699        C  0.83997009  0.97794288  0.52593781     0.02200
C700        C  0.84134546  0.98039801  0.51006250     0.08300
C701        C  0.83629063  0.95757636  0.50414733    -0.04800
H702        H  0.84127878  0.99217670  0.53446381     0.08900
H703        H  0.83423747  0.95254984  0.49207563     0.10100
Cu704      Cu  0.82635641  0.93937316  0.55086313     0.44200
Cu705      Cu  0.82126029  0.90572864  0.51508568     0.42000
Cu706      Cu  0.80282794  0.87602347  0.55169457     0.43900
N707        N  0.81203308  0.92093810  0.57087196    -0.33500
N708        N  0.80329688  0.89779243  0.57115519    -0.27700
C709        C  0.79307309  0.89164339  0.58562653    -0.03800
C710        C  0.79561350  0.91187878  0.59480133     0.08400
C711        C  0.80756100  0.93015911  0.58515781     0.02200
H712        H  0.78331566  0.87397208  0.58906524     0.09800
H713        H  0.81145293  0.94890117  0.58814197     0.08900
N714        N  0.80271619  0.85851229  0.53052865    -0.34900
N715        N  0.80938047  0.86937554  0.51716770    -0.27100
C716        C  0.80695464  0.85313620  0.50567275    -0.02400
C717        C  0.79839139  0.83113340  0.51217038     0.06300
C718        C  0.79585806  0.83505852  0.52789780     0.04400
H719        H  0.81102160  0.85710743  0.49351928     0.09500
H720        H  0.78940349  0.82192838  0.53676940     0.08300
N721        N  0.31905755  0.90165182  0.71188517    -0.26100
N722        N  0.34964804  0.90261483  0.72075083    -0.34000
C723        C  0.33873207  0.90210876  0.73568081     0.02200
C724        C  0.29953228  0.90081754  0.73619320     0.08300
C725        C  0.28802701  0.90056285  0.72092044    -0.04800
H726        H  0.35795468  0.90273577  0.74542821     0.08900
H727        H  0.25922404  0.89965712  0.71664290     0.10100
Cu728      Cu  0.40512841  0.90465738  0.71244395     0.44200
Cu729      Cu  0.31947870  0.90178208  0.68791724     0.42000
Cu730      Cu  0.41101007  0.90461880  0.67071736     0.43900
N731        N  0.45628837  0.90613277  0.70035967    -0.33500
N732        N  0.45767394  0.90619610  0.68506688    -0.27700
C733        C  0.49395388  0.90725746  0.68045298    -0.03800
C734        C  0.51679864  0.90783928  0.69341546     0.08400
C735        C  0.49205308  0.90708386  0.70589878     0.02200
H736        H  0.50294523  0.90745135  0.66847739     0.09800
H737        H  0.49943134  0.90723310  0.71805131     0.08900
N738        N  0.36178775  0.90298341  0.65787917    -0.34900
N739        N  0.32767419  0.90193556  0.66419662    -0.27100
C740        C  0.30152279  0.90074211  0.65288394    -0.02400
C741        C  0.32037502  0.90108251  0.63887604     0.06300
C742        C  0.35843312  0.90249417  0.64239103     0.04400
H743        H  0.27121952  0.89951589  0.65474020     0.09500
H744        H  0.38196042  0.90292807  0.63433827     0.08300
N745        N  0.21875642  0.92688423  0.51895989    -0.26100
N746        N  0.21737604  0.93838237  0.53235631    -0.34000
C747        C  0.20581348  0.96112983  0.52989730     0.02200
C748        C  0.19960270  0.96393260  0.51424253     0.08300
C749        C  0.20811935  0.94201447  0.50760616    -0.04800
H750        H  0.20309618  0.97472400  0.53879381     0.08900
H751        H  0.20746596  0.93751530  0.49542247     0.10100
Cu752      Cu  0.23370641  0.92321312  0.55320031     0.44200
Cu753      Cu  0.23655910  0.89151869  0.51661870     0.42000
Cu754      Cu  0.26937945  0.86213495  0.55147105     0.43900
N755        N  0.25595720  0.90506511  0.57204822    -0.33500
N756        N  0.26913238  0.88279758  0.57138979    -0.27700
C757        C  0.28322678  0.87670483  0.58530769    -0.03800
C758        C  0.27856635  0.89606372  0.59509752     0.08400
C759        C  0.26133559  0.91376529  0.58640580     0.02200
H760        H  0.29663919  0.85968454  0.58796077     0.09800
H761        H  0.25410487  0.93179682  0.59008998     0.08900
N762        N  0.26771194  0.84554291  0.53004679    -0.34900
N763        N  0.25574045  0.85627645  0.51728162    -0.27100
C764        C  0.25803519  0.84067878  0.50541294    -0.02400
C765        C  0.27211497  0.81924912  0.51105444     0.06300
C766        C  0.27796313  0.82283704  0.52666057     0.04400
H767        H  0.24988105  0.84464189  0.49361030     0.09500
H768        H  0.28867006  0.80993232  0.53496093     0.08300
C769        C  0.29177664  0.89801905  0.61074263    -0.12100
C770        C  0.30409707  0.89952846  0.62370143    -0.13600
C771        C  0.77212039  0.91510605  0.62374187    -0.12100
C772        C  0.78387622  0.91397341  0.61066067    -0.13600
C773        C  0.77715280  0.74977986  0.48244779    -0.17300
C774        C  0.78226854  0.76830029  0.48937692     0.06700
C775        C  0.78805852  0.79009230  0.49739118     0.08600
C776        C  0.79284746  0.80878151  0.50417062    -0.18200
C777        C  0.79136898  0.64783566  0.37474135    -0.12100
C778        C  0.80368928  0.64611976  0.36178102    -0.13600
C779        C  0.29444673  0.73854783  0.48073030    -0.17300
C780        C  0.28960750  0.75728298  0.48745414     0.06700
C781        C  0.28378478  0.77904451  0.49550246     0.08600
C782        C  0.27859467  0.79747961  0.50252033    -0.18200
C783        C  0.27325024  0.62997161  0.36215210    -0.12100
C784        C  0.28539685  0.63147606  0.37514652    -0.13600
C785        C  0.67833061  0.50237731  0.50173238    -0.17300
C786        C  0.67983905  0.52099454  0.49461725     0.06700
C787        C  0.68401870  0.54274441  0.48638328     0.08600
C788        C  0.68960467  0.56125149  0.47949021    -0.18200
C789        C  0.74262646  0.41250578  0.62380275    -0.12100
C790        C  0.73061518  0.41173178  0.61075692    -0.13600
C791        C  0.34162390  0.54471187  0.48490068    -0.17300
C792        C  0.33934941  0.52610407  0.49199743     0.06700
C793        C  0.33415993  0.50427775  0.50005914     0.08600
C794        C  0.32774062  0.48570012  0.50675589    -0.18200
C795        C  0.22426113  0.39638051  0.61050460    -0.12100
C796        C  0.21169140  0.39758108  0.62345044    -0.13600
C797        C  0.18959014  0.98575403  0.50633206    -0.17300
C798        C  0.18274376  0.00423510  0.49959059     0.06700
C799        C  0.17687340  0.02599976  0.49152685     0.08600
C800        C  0.17395244  0.04460063  0.48445498    -0.18200
C801        C  0.21967943  0.23871116  0.48011605    -0.17300
C802        C  0.22528625  0.25741683  0.48678874     0.06700
C803        C  0.23205482  0.27915001  0.49476958     0.08600
C804        C  0.23792228  0.29752634  0.50177514    -0.18200
C805        C  0.23129135  0.13049528  0.37502101    -0.12100
C806        C  0.24380409  0.12858062  0.36209773    -0.13600
C807        C  0.84235253  0.00252056  0.50149583    -0.17300
C808        C  0.84090292  0.02116876  0.49441096     0.06700
C809        C  0.83647374  0.04296824  0.48625278     0.08600
C810        C  0.83044770  0.06145450  0.47939999    -0.18200
C811        C  0.73773717  0.24904131  0.48207697    -0.17300
C812        C  0.73255977  0.26756066  0.48901271     0.06700
C813        C  0.72682724  0.28933931  0.49706686     0.08600
C814        C  0.72220738  0.30802245  0.50388442    -0.18200
C815        C  0.71209493  0.14400113  0.36176801    -0.12100
C816        C  0.72419165  0.14586703  0.37474481    -0.13600
C817        C  0.74573959  0.11194707  0.12388941    -0.12100
C818        C  0.73415422  0.11330618  0.11079720    -0.13600
C819        C  0.22674182  0.12669532  0.11052830    -0.12100
C820        C  0.21407760  0.12532755  0.12344831    -0.13600
C821        C  0.74236272  0.27703180  0.98202597    -0.17300
C822        C  0.73757905  0.25859074  0.98909305     0.06700
C823        C  0.73206770  0.23693014  0.99729948     0.08600
C824        C  0.72734665  0.21832599  0.00419524    -0.18200
C825        C  0.71169559  0.38110460  0.86162371    -0.12100
C826        C  0.72433791  0.37943879  0.87452664    -0.13600
C827        C  0.22576189  0.28619661  0.98088986    -0.17300
C828        C  0.23184607  0.26753651  0.98753951     0.06700
C829        C  0.23889453  0.24582768  0.99549343     0.08600
C830        C  0.24475646  0.22742834  0.00246929    -0.18200
C831        C  0.23029240  0.39291491  0.87528359    -0.12100
C832        C  0.24233506  0.39443928  0.86226272    -0.13600
C833        C  0.68947596  0.96475256  0.97967670    -0.17300
C834        C  0.68484642  0.98343935  0.98648464     0.06700
C835        C  0.68166431  0.00544944  0.99450404     0.08600
C836        C  0.68082630  0.02420968  0.00147785    -0.18200
C837        C  0.78965643  0.87972965  0.87445460    -0.12100
C838        C  0.80214508  0.88175032  0.86154469    -0.13600
C839        C  0.33299993  0.03889312  0.00699423    -0.17300
C840        C  0.33885793  0.02021598  0.00032800     0.06700
C841        C  0.34324582  0.99826222  0.99233012     0.08600
C842        C  0.34475422  0.97957683  0.98528660    -0.18200
C843        C  0.28322453  0.89433247  0.87565610    -0.12100
C844        C  0.27142043  0.89614060  0.86261963    -0.13600
C845        C  0.84122855  0.52376723  0.00190336    -0.17300
C846        C  0.83948120  0.50528880  0.99465633     0.06700
C847        C  0.83492834  0.48374632  0.98624165     0.08600
C848        C  0.82898081  0.46542796  0.97920309    -0.18200
C849        C  0.77588490  0.77591287  0.98147462    -0.17300
C850        C  0.78180465  0.75749606  0.98842971     0.06700
C851        C  0.78860615  0.73589421  0.99654869     0.08600
C852        C  0.79426350  0.71741036  0.00346569    -0.18200
C853        C  0.77256442  0.61422289  0.12379818    -0.12100
C854        C  0.78444192  0.61470274  0.11072080    -0.13600
C855        C  0.18739188  0.53858713  0.00668944    -0.17300
C856        C  0.18085054  0.52003300  0.00000180     0.06700
C857        C  0.17557279  0.49819290  0.99198329     0.08600
C858        C  0.17326937  0.47955267  0.98493612    -0.18200
C859        C  0.29319543  0.78589715  0.98080133    -0.17300
C860        C  0.28818340  0.76708846  0.98742871     0.06700
C861        C  0.28229567  0.74522620  0.99536728     0.08600
C862        C  0.27725402  0.72670575  0.00231867    -0.18200
C863        C  0.29216340  0.62636853  0.11055805    -0.12100
C864        C  0.30439163  0.62524266  0.12354082    -0.13600
loop_ 
_geom_bond_atom_site_label_1 
_geom_bond_atom_site_label_2 
_geom_bond_distance 
_geom_bond_site_symmetry_2 
_ccdc_geom_bond_type 
N1            N2   1.324       .  A
N1            C5   1.344       .  A
N1           Cu9   2.068       .  S
N2            C3   1.345       .  A
N2           Cu8   2.083       .  S
C3            C4   1.384       .  A
C3            H6   1.082       .  S
C4            C5   1.380       .  A
C4          C580   1.469       .  S
C5            H7   1.082       .  S
Cu8          N11   2.082       .  S
Cu9          N19   2.066       .  S
Cu10         N12   2.062       .  S
Cu10         N18   2.061       .  S
N11          N12   1.322       .  A
N11          C15   1.350       .  A
N12          C13   1.340       .  A
C13          C14   1.380       .  A
C13          H16   1.082       .  S
C14          C15   1.387       .  A
C14          C62   1.472       .  S
C15          H17   1.082       .  S
N18          N19   1.321       .  A
N18          C22   1.343       .  A
N19          C20   1.345       .  A
C20          C21   1.380       .  A
C20          H23   1.082       .  S
C21          C22   1.378       .  A
C21         C864   1.433       .  S
C22          H24   1.082       .  S
N25          N26   1.323       .  A
N25          C29   1.345       .  A
N25         Cu33   2.073       .  S
N26          C27   1.345       .  A
N26         Cu32   2.069       .  S
C27          C28   1.379       .  A
C27          H30   1.082       .  S
C28          C29   1.379       .  A
C28         C855   1.435       .  S
C29          H31   1.082   1_554  S
Cu32         N35   2.068       .  S
Cu33         N43   2.073       .  S
Cu34         N36   2.068       .  S
Cu34         N42   2.068       .  S
N35          N36   1.323       .  A
N35          C39   1.345       .  A
N36          C37   1.344       .  A
C37          C38   1.378       .  A
C37          H40   1.082       .  S
C38          C39   1.378       .  A
C38         C863   1.433       .  S
C39          H41   1.082       .  S
N42          N43   1.323       .  A
N42          C46   1.345       .  A
N43          C44   1.345       .  A
C44          C45   1.379       .  A
C44          H47   1.082   1_554  S
C45          C46   1.378       .  A
C45         C862   1.435       .  S
C46          H48   1.082       .  S
N49          N50   1.324       .  A
N49          C53   1.344       .  A
N49         Cu57   2.071       .  S
N50          C51   1.346       .  A
N50         Cu56   2.083       .  S
C51          C52   1.384       .  A
C51          H54   1.082       .  S
C52          C53   1.380       .  A
C52         C628   1.470       .  S
C53          H55   1.082       .  S
Cu56         N59   2.081       .  S
Cu57         N67   2.070       .  S
Cu58         N60   2.064       .  S
Cu58         N66   2.064       .  S
N59          N60   1.322       .  A
N59          C63   1.349       .  A
N60          C61   1.340       .  A
C61          C62   1.381       .  A
C61          H64   1.082       .  S
C62          C63   1.386       .  A
C63          H65   1.082       .  S
N66          N67   1.321       .  A
N66          C70   1.344       .  A
N67          C68   1.346       .  A
C68          C69   1.380       .  A
C68          H71   1.082       .  S
C69          C70   1.378       .  A
C69         C853   1.435       .  S
C70          H72   1.082       .  S
N73          N74   1.323       .  A
N73          C77   1.345       .  A
N73         Cu81   2.071       .  S
N74          C75   1.345       .  A
N74         Cu80   2.072       .  S
C75          C76   1.379       .  A
C75          H78   1.082       .  S
C76          C77   1.379       .  A
C76         C845   1.435       .  S
C77          H79   1.082   1_554  S
Cu80         N83   2.072       .  S
Cu81         N91   2.071       .  S
Cu82         N84   2.070       .  S
Cu82         N90   2.070       .  S
N83          N84   1.323       .  A
N83          C87   1.346       .  A
N84          C85   1.344       .  A
C85          C86   1.378       .  A
C85          H88   1.082       .  S
C86          C87   1.379       .  A
C86         C854   1.435       .  S
C87          H89   1.082       .  S
N90          N91   1.323       .  A
N90          C94   1.345       .  A
N91          C92   1.345       .  A
C92          C93   1.379       .  A
C92          H95   1.082   1_554  S
C93          C94   1.379       .  A
C93         C852   1.436       .  S
C94          H96   1.082       .  S
N97          N98   1.324       .  A
N97         C101   1.344       .  A
N97        Cu105   2.072       .  S
N98          C99   1.346       .  A
N98        Cu104   2.083       .  S
C99         C100   1.384       .  A
C99         H102   1.082       .  S
C100        C101   1.381       .  A
C100        C724   1.471       .  S
C101        H103   1.082       .  S
Cu104       N107   2.082       .  S
Cu105       N115   2.071       .  S
Cu106       N108   2.064       .  S
Cu106       N114   2.064       .  S
N107        N108   1.322       .  A
N107        C111   1.349       .  A
N108        C109   1.341       .  A
C109        C110   1.381       .  A
C109        H112   1.082       .  S
C110        C111   1.386       .  A
C110        C158   1.472       .  S
C111        H113   1.082       .  S
N114        N115   1.321       .  A
N114        C118   1.344       .  A
N115        C116   1.346       .  A
C116        C117   1.381       .  A
C116        H119   1.082       .  S
C117        C118   1.378       .  A
C117        C844   1.436       .  S
C118        H120   1.082       .  S
N121        N122   1.323       .  A
N121        C125   1.346       .  A
N121       Cu129   2.073       .  S
N122        C123   1.345       .  A
N122       Cu128   2.071       .  S
C123        C124   1.379       .  A
C123        H126   1.082       .  S
C124        C125   1.380       .  A
C124        C842   1.436       .  S
C125        H127   1.082       .  S
Cu128       N131   2.071       .  S
Cu129       N139   2.073       .  S
Cu130       N132   2.071       .  S
Cu130       N138   2.071       .  S
N131        N132   1.323       .  A
N131        C135   1.345       .  A
N132        C133   1.345       .  A
C133        C134   1.379       .  A
C133        H136   1.082       .  S
C134        C135   1.379       .  A
C134        C843   1.436       .  S
C135        H137   1.082       .  S
N138        N139   1.323       .  A
N138        C142   1.345       .  A
N139        C140   1.345       .  A
C140        C141   1.379       .  A
C140        H143   1.082       .  S
C141        C142   1.379       .  A
C141        C859   1.435       .  S
C142        H144   1.082       .  S
N145        N146   1.324       .  A
N145        C149   1.344       .  A
N145       Cu153   2.069       .  S
N146        C147   1.346       .  A
N146       Cu152   2.084       .  S
C147        C148   1.384       .  A
C147        H150   1.082       .  S
C148        C149   1.380       .  A
C148        C676   1.470       .  S
C149        H151   1.082       .  S
Cu152       N155   2.083       .  S
Cu153       N163   2.067       .  S
Cu154       N156   2.063       .  S
Cu154       N162   2.062       .  S
N155        N156   1.322       .  A
N155        C159   1.349       .  A
N156        C157   1.341       .  A
C157        C158   1.380   1_655  A
C157        H160   1.082   1_655  S
C158        C159   1.386   1_455  A
C159        H161   1.082       .  S
N162        N163   1.321       .  A
N162        C166   1.343       .  A
N163        C164   1.346       .  A
C164        C165   1.380       .  A
C164        H167   1.082       .  S
C165        C166   1.378       .  A
C165        C838   1.434       .  S
C166        H168   1.082       .  S
N169        N170   1.323       .  A
N169        C173   1.345       .  A
N169       Cu177   2.074       .  S
N170        C171   1.345       .  A
N170       Cu176   2.068       .  S
C171        C172   1.378       .  A
C171        H174   1.082       .  S
C172        C173   1.380       .  A
C172        C833   1.435       .  S
C173        H175   1.082       .  S
Cu176       N179   2.068       .  S
Cu177       N187   2.074       .  S
Cu178       N180   2.069       .  S
Cu178       N186   2.069       .  S
N179        N180   1.323       .  A
N179        C183   1.345       .  A
N180        C181   1.344       .  A
C181        C182   1.378       .  A
C181        H184   1.082       .  S
C182        C183   1.378       .  A
C182        C837   1.434       .  S
C183        H185   1.082       .  S
N186        N187   1.323       .  A
N186        C190   1.345       .  A
N187        C188   1.345       .  A
C188        C189   1.379       .  A
C188        H191   1.082       .  S
C189        C190   1.379       .  A
C189        C849   1.436       .  S
C190        H192   1.082       .  S
N193        N194   1.324       .  A
N193        C197   1.344       .  A
N193       Cu201   2.070       .  S
N194        C195   1.346       .  A
N194       Cu200   2.082       .  S
C195        C196   1.384       .  A
C195        H198   1.082       .  S
C196        C197   1.380       .  A
C196        C484   1.470       .  S
C197        H199   1.082       .  S
Cu200       N203   2.081       .  S
Cu201       N211   2.069       .  S
Cu202       N204   2.065       .  S
Cu202       N210   2.064       .  S
N203        N204   1.322       .  A
N203        C207   1.349       .  A
N204        C205   1.341       .  A
C205        C206   1.381       .  A
C205        H208   1.082       .  S
C206        C207   1.386       .  A
C206        C254   1.472       .  S
C207        H209   1.082       .  S
N210        N211   1.321       .  A
N210        C214   1.344       .  A
N211        C212   1.346       .  A
C212        C213   1.380       .  A
C212        H215   1.082       .  S
C213        C214   1.378       .  A
C213        C832   1.435       .  S
C214        H216   1.082       .  S
N217        N218   1.323       .  A
N217        C221   1.345       .  A
N217       Cu225   2.072       .  S
N218        C219   1.345       .  A
N218       Cu224   2.071       .  S
C219        C220   1.379       .  A
C219        H222   1.082       .  S
C220        C221   1.379       .  A
C220        C858   1.435       .  S
C221        H223   1.082       .  S
Cu224       N227   2.071       .  S
Cu225       N235   2.072       .  S
Cu226       N228   2.070       .  S
Cu226       N234   2.070       .  S
N227        N228   1.323       .  A
N227        C231   1.346       .  A
N228        C229   1.344       .  A
C229        C230   1.379       .  A
C229        H232   1.082       .  S
C230        C231   1.379       .  A
C230        C831   1.435       .  S
C231        H233   1.082       .  S
N234        N235   1.323       .  A
N234        C238   1.345       .  A
N235        C236   1.345       .  A
C236        C237   1.379       .  A
C236        H239   1.082       .  S
C237        C238   1.379       .  A
C237        C827   1.435       .  S
C238        H240   1.082       .  S
N241        N242   1.324       .  A
N241        C245   1.344       .  A
N241       Cu249   2.069       .  S
N242        C243   1.345       .  A
N242       Cu248   2.083       .  S
C243        C244   1.384       .  A
C243        H246   1.082       .  S
C244        C245   1.380       .  A
C244        C532   1.469       .  S
C245        H247   1.082       .  S
Cu248       N251   2.082       .  S
Cu249       N259   2.067       .  S
Cu250       N252   2.063       .  S
Cu250       N258   2.063       .  S
N251        N252   1.322       .  A
N251        C255   1.349       .  A
N252        C253   1.340       .  A
C253        C254   1.380       .  A
C253        H256   1.082       .  S
C254        C255   1.386       .  A
C255        H257   1.082       .  S
N258        N259   1.321       .  A
N258        C262   1.344       .  A
N259        C260   1.345       .  A
C260        C261   1.380       .  A
C260        H263   1.082       .  S
C261        C262   1.378       .  A
C261        C825   1.434       .  S
C262        H264   1.082       .  S
N265        N266   1.323       .  A
N265        C269   1.345       .  A
N265       Cu273   2.070       .  S
N266        C267   1.345       .  A
N266       Cu272   2.071       .  S
C267        C268   1.379       .  A
C267        H270   1.082       .  S
C268        C269   1.379       .  A
C268        C848   1.435       .  S
C269        H271   1.082       .  S
Cu272       N275   2.071       .  S
Cu273       N283   2.070       .  S
Cu274       N276   2.070       .  S
Cu274       N282   2.070       .  S
N275        N276   1.323       .  A
N275        C279   1.345       .  A
N276        C277   1.344       .  A
C277        C278   1.378       .  A
C277        H280   1.082       .  S
C278        C279   1.379       .  A
C278        C826   1.434       .  S
C279        H281   1.082       .  S
N282        N283   1.323       .  A
N282        C286   1.345       .  A
N283        C284   1.345       .  A
C284        C285   1.379       .  A
C284        H287   1.082       .  S
C285        C286   1.379       .  A
C285        C821   1.435       .  S
C286        H288   1.082       .  S
N289        N290   1.324       .  A
N289        C293   1.344       .  A
N289       Cu297   2.069       .  S
N290        C291   1.345       .  A
N290       Cu296   2.082       .  S
C291        C292   1.384       .  A
C291        H294   1.082       .  S
C292        C293   1.380       .  A
C292        C436   1.469       .  S
C293        H295   1.082       .  S
Cu296       N299   2.081       .  S
Cu297       N307   2.068       .  S
Cu298       N300   2.064       .  S
Cu298       N306   2.063       .  S
N299        N300   1.322       .  A
N299        C303   1.349       .  A
N300        C301   1.341       .  A
C301        C302   1.381       .  A
C301        H304   1.082       .  S
C302        C303   1.386       .  A
C302        C350   1.472   1_455  S
C303        H305   1.082       .  S
N306        N307   1.321       .  A
N306        C310   1.344       .  A
N307        C308   1.345       .  A
C308        C309   1.380       .  A
C308        H311   1.082       .  S
C309        C310   1.378       .  A
C309        C820   1.434       .  S
C310        H312   1.082       .  S
N313        N314   1.323       .  A
N313        C317   1.345       .  A
N313       Cu321   2.074       .  S
N314        C315   1.345       .  A
N314       Cu320   2.070       .  S
C315        C316   1.379       .  A
C315        H318   1.082       .  S
C316        C317   1.379       .  A
C316        C839   1.436       .  S
C317        H319   1.082   1_554  S
Cu320       N323   2.070       .  S
Cu321       N331   2.074       .  S
Cu322       N324   2.069       .  S
Cu322       N330   2.069       .  S
N323        N324   1.323       .  A
N323        C327   1.345       .  A
N324        C325   1.344       .  A
C325        C326   1.378       .  A
C325        H328   1.082       .  S
C326        C327   1.379       .  A
C326        C819   1.434       .  S
C327        H329   1.082       .  S
N330        N331   1.323       .  A
N330        C334   1.345       .  A
N331        C332   1.345       .  A
C332        C333   1.379       .  A
C332        H335   1.082   1_554  S
C333        C334   1.378       .  A
C333        C830   1.435       .  S
C334        H336   1.082       .  S
N337        N338   1.324       .  A
N337        C341   1.344       .  A
N337       Cu345   2.071       .  S
N338        C339   1.346       .  A
N338       Cu344   2.084       .  S
C339        C340   1.384       .  A
C339        H342   1.082       .  S
C340        C341   1.380       .  A
C340        C388   1.470       .  S
C341        H343   1.082       .  S
Cu344       N347   2.082       .  S
Cu345       N355   2.070       .  S
Cu346       N348   2.063       .  S
Cu346       N354   2.063       .  S
N347        N348   1.322       .  A
N347        C351   1.349       .  A
N348        C349   1.340       .  A
C349        C350   1.380       .  A
C349        H352   1.082       .  S
C350        C351   1.386       .  A
C351        H353   1.082       .  S
N354        N355   1.321       .  A
N354        C358   1.343       .  A
N355        C356   1.346       .  A
C356        C357   1.381       .  A
C356        H359   1.082       .  S
C357        C358   1.378       .  A
C357        C817   1.436       .  S
C358        H360   1.082       .  S
N361        N362   1.323       .  A
N361        C365   1.345       .  A
N361       Cu369   2.071       .  S
N362        C363   1.345       .  A
N362       Cu368   2.071       .  S
C363        C364   1.379       .  A
C363        H366   1.082       .  S
C364        C365   1.379       .  A
C364        C836   1.435       .  S
C365        H367   1.082   1_554  S
Cu368       N371   2.071       .  S
Cu369       N379   2.071       .  S
Cu370       N372   2.072       .  S
Cu370       N378   2.072       .  S
N371        N372   1.323       .  A
N371        C375   1.345       .  A
N372        C373   1.345       .  A
C373        C374   1.379       .  A
C373        H376   1.082       .  S
C374        C375   1.379       .  A
C374        C818   1.436       .  S
C375        H377   1.082       .  S
N378        N379   1.323       .  A
N378        C382   1.345       .  A
N379        C380   1.345       .  A
C380        C381   1.378       .  A
C380        H383   1.082   1_554  S
C381        C382   1.379       .  A
C381        C824   1.435       .  S
C382        H384   1.082       .  S
N385        N386   1.324       .  A
N385        C389   1.344       .  A
N385       Cu393   2.071       .  S
N386        C387   1.345       .  A
N386       Cu392   2.084       .  S
C387        C388   1.384       .  A
C387        H390   1.082       .  S
C388        C389   1.380       .  A
C389        H391   1.082       .  S
Cu392       N395   2.083       .  S
Cu393       N403   2.069       .  S
Cu394       N396   2.061       .  S
Cu394       N402   2.061       .  S
N395        N396   1.322       .  A
N395        C399   1.350       .  A
N396        C397   1.340       .  A
C397        C398   1.380       .  A
C397        H400   1.082       .  S
C398        C399   1.387       .  A
C398        C446   1.471       .  S
C399        H401   1.082       .  S
N402        N403   1.321       .  A
N402        C406   1.343       .  A
N403        C404   1.346       .  A
C404        C405   1.380       .  A
C404        H407   1.082       .  S
C405        C406   1.378       .  A
C405        C815   1.434       .  S
C406        H408   1.082       .  S
N409        N410   1.323       .  A
N409        C413   1.345       .  A
N409       Cu417   2.072       .  S
N410        C411   1.345       .  A
N410       Cu416   2.069       .  S
C411        C412   1.379       .  A
C411        H414   1.082       .  S
C412        C413   1.379       .  A
C412        C810   1.435       .  S
C413        H415   1.082       .  S
Cu416       N419   2.069       .  S
Cu417       N427   2.072       .  S
Cu418       N420   2.070       .  S
Cu418       N426   2.070       .  S
N419        N420   1.323       .  A
N419        C423   1.345       .  A
N420        C421   1.345       .  A
C421        C422   1.379       .  A
C421        H424   1.082       .  S
C422        C423   1.379       .  A
C422        C816   1.434       .  S
C423        H425   1.082       .  S
N426        N427   1.323       .  A
N426        C430   1.345       .  A
N427        C428   1.345       .  A
C428        C429   1.379       .  A
C428        H431   1.082       .  S
C429        C430   1.379       .  A
C429        C811   1.436       .  S
C430        H432   1.082       .  S
N433        N434   1.324       .  A
N433        C437   1.344       .  A
N433       Cu441   2.069       .  S
N434        C435   1.345       .  A
N434       Cu440   2.081       .  S
C435        C436   1.384       .  A
C435        H438   1.082       .  S
C436        C437   1.380       .  A
C437        H439   1.082       .  S
Cu440       N443   2.080       .  S
Cu441       N451   2.068       .  S
Cu442       N444   2.066       .  S
Cu442       N450   2.065       .  S
N443        N444   1.322       .  A
N443        C447   1.349       .  A
N444        C445   1.341       .  A
C445        C446   1.381       .  A
C445        H448   1.082       .  S
C446        C447   1.385       .  A
C447        H449   1.082       .  S
N450        N451   1.321       .  A
N450        C454   1.344       .  A
N451        C452   1.346       .  A
C452        C453   1.380       .  A
C452        H455   1.082       .  S
C453        C454   1.378       .  A
C453        C806   1.435       .  S
C454        H456   1.082       .  S
N457        N458   1.323       .  A
N457        C461   1.345       .  A
N457       Cu465   2.073       .  S
N458        C459   1.345       .  A
N458       Cu464   2.070       .  S
C459        C460   1.379       .  A
C459        H462   1.082       .  S
C460        C461   1.380       .  A
C460        C800   1.436       .  S
C461        H463   1.082       .  S
Cu464       N467   2.070       .  S
Cu465       N475   2.073       .  S
Cu466       N468   2.072       .  S
Cu466       N474   2.072       .  S
N467        N468   1.323       .  A
N467        C471   1.345       .  A
N468        C469   1.345       .  A
C469        C470   1.379       .  A
C469        H472   1.082       .  S
C470        C471   1.379       .  A
C470        C805   1.435       .  S
C471        H473   1.082       .  S
N474        N475   1.323       .  A
N474        C478   1.345       .  A
N475        C476   1.345       .  A
C476        C477   1.379       .  A
C476        H479   1.082       .  S
C477        C478   1.379       .  A
C477        C801   1.436       .  S
C478        H480   1.082       .  S
N481        N482   1.324       .  A
N481        C485   1.344       .  A
N481       Cu489   2.070       .  S
N482        C483   1.346       .  A
N482       Cu488   2.084       .  S
C483        C484   1.384       .  A
C483        H486   1.082       .  S
C484        C485   1.380       .  A
C485        H487   1.082       .  S
Cu488       N491   2.083       .  S
Cu489       N499   2.068       .  S
Cu490       N492   2.064       .  S
Cu490       N498   2.064       .  S
N491        N492   1.322       .  A
N491        C495   1.350       .  A
N492        C493   1.341       .  A
C493        C494   1.381   1_455  A
C493        H496   1.082       .  S
C494        C495   1.387   1_655  A
C494        C542   1.473       .  S
C495        H497   1.082       .  S
N498        N499   1.321       .  A
N498        C502   1.344       .  A
N499        C500   1.346       .  A
C500        C501   1.380       .  A
C500        H503   1.082       .  S
C501        C502   1.378       .  A
C501        C796   1.434       .  S
C502        H504   1.082       .  S
N505        N506   1.323       .  A
N505        C509   1.345       .  A
N505       Cu513   2.074       .  S
N506        C507   1.345       .  A
N506       Cu512   2.070       .  S
C507        C508   1.379       .  A
C507        H510   1.082       .  S
C508        C509   1.379       .  A
C508        C794   1.435       .  S
C509        H511   1.082       .  S
Cu512       N515   2.070       .  S
Cu513       N523   2.074       .  S
Cu514       N516   2.070       .  S
Cu514       N522   2.070       .  S
N515        N516   1.323       .  A
N515        C519   1.345       .  A
N516        C517   1.344       .  A
C517        C518   1.378       .  A
C517        H520   1.082       .  S
C518        C519   1.379       .  A
C518        C795   1.435       .  S
C519        H521   1.082       .  S
N522        N523   1.323       .  A
N522        C526   1.345       .  A
N523        C524   1.346       .  A
C524        C525   1.380       .  A
C524        H527   1.082       .  S
C525        C526   1.379       .  A
C525        C804   1.436       .  S
C526        H528   1.082       .  S
N529        N530   1.324       .  A
N529        C533   1.344       .  A
N529       Cu537   2.069       .  S
N530        C531   1.346       .  A
N530       Cu536   2.083       .  S
C531        C532   1.384       .  A
C531        H534   1.082       .  S
C532        C533   1.380       .  A
C533        H535   1.082       .  S
Cu536       N539   2.082       .  S
Cu537       N547   2.068       .  S
Cu538       N540   2.067       .  S
Cu538       N546   2.066       .  S
N539        N540   1.322       .  A
N539        C543   1.349       .  A
N540        C541   1.341       .  A
C541        C542   1.381       .  A
C541        H544   1.082       .  S
C542        C543   1.386       .  A
C543        H545   1.082       .  S
N546        N547   1.321       .  A
N546        C550   1.344       .  A
N547        C548   1.346       .  A
C548        C549   1.380       .  A
C548        H551   1.082       .  S
C549        C550   1.379       .  A
C549        C789   1.436       .  S
C550        H552   1.082       .  S
N553        N554   1.323       .  A
N553        C557   1.345       .  A
N553       Cu561   2.070       .  S
N554        C555   1.345       .  A
N554       Cu560   2.072       .  S
C555        C556   1.379       .  A
C555        H558   1.082       .  S
C556        C557   1.379       .  A
C556        C785   1.435       .  S
C557        H559   1.082       .  S
Cu560       N563   2.072       .  S
Cu561       N571   2.070       .  S
Cu562       N564   2.071       .  S
Cu562       N570   2.071       .  S
N563        N564   1.323       .  A
N563        C567   1.346       .  A
N564        C565   1.344       .  A
C565        C566   1.379       .  A
C565        H568   1.082       .  S
C566        C567   1.380       .  A
C566        C790   1.436       .  S
C567        H569   1.082       .  S
N570        N571   1.323       .  A
N570        C574   1.345       .  A
N571        C572   1.345       .  A
C572        C573   1.379       .  A
C572        H575   1.082       .  S
C573        C574   1.379       .  A
C573        C814   1.436       .  S
C574        H576   1.082       .  S
N577        N578   1.324       .  A
N577        C581   1.343       .  A
N577       Cu585   2.068       .  S
N578        C579   1.346       .  A
N578       Cu584   2.082       .  S
C579        C580   1.384       .  A
C579        H582   1.082       .  S
C580        C581   1.380       .  A
C581        H583   1.082       .  S
Cu584       N587   2.081       .  S
Cu585       N595   2.067       .  S
Cu586       N588   2.067       .  S
Cu586       N594   2.066       .  S
N587        N588   1.322       .  A
N587        C591   1.349       .  A
N588        C589   1.341       .  A
C589        C590   1.381       .  A
C589        H592   1.082       .  S
C590        C591   1.386       .  A
C590        C638   1.472       .  S
C591        H593   1.082       .  S
N594        N595   1.321       .  A
N594        C598   1.344       .  A
N595        C596   1.346       .  A
C596        C597   1.380       .  A
C596        H599   1.082       .  S
C597        C598   1.379       .  A
C597        C783   1.435       .  S
C598        H600   1.082       .  S
N601        N602   1.323       .  A
N601        C605   1.345       .  A
N601       Cu609   2.071       .  S
N602        C603   1.345       .  A
N602       Cu608   2.071       .  S
C603        C604   1.379       .  A
C603        H606   1.082       .  S
C604        C605   1.379       .  A
C604        C791   1.435       .  S
C605        H607   1.082       .  S
Cu608       N611   2.071       .  S
Cu609       N619   2.071       .  S
Cu610       N612   2.070       .  S
Cu610       N618   2.070       .  S
N611        N612   1.323       .  A
N611        C615   1.345       .  A
N612        C613   1.344       .  A
C613        C614   1.379       .  A
C613        H616   1.082       .  S
C614        C615   1.379       .  A
C614        C784   1.435       .  S
C615        H617   1.082       .  S
N618        N619   1.323       .  A
N618        C622   1.345       .  A
N619        C620   1.345       .  A
C620        C621   1.379       .  A
C620        H623   1.082       .  S
C621        C622   1.379       .  A
C621        C779   1.435       .  S
C622        H624   1.082       .  S
N625        N626   1.324       .  A
N625        C629   1.344       .  A
N625       Cu633   2.071       .  S
N626        C627   1.345       .  A
N626       Cu632   2.084       .  S
C627        C628   1.384       .  A
C627        H630   1.082       .  S
C628        C629   1.380       .  A
C629        H631   1.082       .  S
Cu632       N635   2.083       .  S
Cu633       N643   2.069       .  S
Cu634       N636   2.062       .  S
Cu634       N642   2.062       .  S
N635        N636   1.322       .  A
N635        C639   1.349       .  A
N636        C637   1.340       .  A
C637        C638   1.380   1_655  A
C637        H640   1.082   1_655  S
C638        C639   1.387   1_455  A
C639        H641   1.082       .  S
N642        N643   1.321       .  A
N642        C646   1.343       .  A
N643        C644   1.346       .  A
C644        C645   1.380       .  A
C644        H647   1.082       .  S
C645        C646   1.378       .  A
C645        C778   1.434       .  S
C646        H648   1.082       .  S
N649        N650   1.323       .  A
N649        C653   1.345       .  A
N649       Cu657   2.072       .  S
N650        C651   1.345       .  A
N650       Cu656   2.070       .  S
C651        C652   1.379       .  A
C651        H654   1.082       .  S
C652        C653   1.379       .  A
C652        C788   1.435       .  S
C653        H655   1.082       .  S
Cu656       N659   2.069       .  S
Cu657       N667   2.072       .  S
Cu658       N660   2.069       .  S
Cu658       N666   2.069       .  S
N659        N660   1.323       .  A
N659        C663   1.345       .  A
N660        C661   1.345       .  A
C661        C662   1.379       .  A
C661        H664   1.082       .  S
C662        C663   1.379       .  A
C662        C777   1.434       .  S
C663        H665   1.082       .  S
N666        N667   1.323       .  A
N666        C670   1.345       .  A
N667        C668   1.345       .  A
C668        C669   1.379       .  A
C668        H671   1.082       .  S
C669        C670   1.378       .  A
C669        C773   1.435       .  S
C670        H672   1.082       .  S
N673        N674   1.324       .  A
N673        C677   1.344       .  A
N673       Cu681   2.070       .  S
N674        C675   1.345       .  A
N674       Cu680   2.082       .  S
C675        C676   1.384       .  A
C675        H678   1.082       .  S
C676        C677   1.380       .  A
C677        H679   1.082       .  S
Cu680       N683   2.081       .  S
Cu681       N691   2.069       .  S
Cu682       N684   2.066       .  S
Cu682       N690   2.066       .  S
N683        N684   1.322       .  A
N683        C687   1.349       .  A
N684        C685   1.341       .  A
C685        C686   1.381       .  A
C685        H688   1.082       .  S
C686        C687   1.386       .  A
C686        C734   1.472       .  S
C687        H689   1.082       .  S
N690        N691   1.321       .  A
N690        C694   1.344       .  A
N691        C692   1.346       .  A
C692        C693   1.380       .  A
C692        H695   1.082       .  S
C693        C694   1.378       .  A
C693        C771   1.435       .  S
C694        H696   1.082       .  S
N697        N698   1.323       .  A
N697        C701   1.345       .  A
N697       Cu705   2.071       .  S
N698        C699   1.345       .  A
N698       Cu704   2.071       .  S
C699        C700   1.379       .  A
C699        H702   1.082       .  S
C700        C701   1.379       .  A
C700        C807   1.435   1_565  S
C701        H703   1.082       .  S
Cu704       N707   2.071       .  S
Cu705       N715   2.071       .  S
Cu706       N708   2.072       .  S
Cu706       N714   2.072       .  S
N707        N708   1.323       .  A
N707        C711   1.345       .  A
N708        C709   1.345       .  A
C709        C710   1.379       .  A
C709        H712   1.082       .  S
C710        C711   1.379       .  A
C710        C772   1.435       .  S
C711        H713   1.082       .  S
N714        N715   1.323       .  A
N714        C718   1.345       .  A
N715        C716   1.345       .  A
C716        C717   1.379       .  A
C716        H719   1.082       .  S
C717        C718   1.379       .  A
C717        C776   1.435       .  S
C718        H720   1.082       .  S
N721        N722   1.324       .  A
N721        C725   1.344       .  A
N721       Cu729   2.070       .  S
N722        C723   1.346       .  A
N722       Cu728   2.085       .  S
C723        C724   1.384       .  A
C723        H726   1.082       .  S
C724        C725   1.381       .  A
C725        H727   1.082       .  S
Cu728       N731   2.084       .  S
Cu729       N739   2.069       .  S
Cu730       N732   2.062       .  S
Cu730       N738   2.062       .  S
N731        N732   1.322       .  A
N731        C735   1.350       .  A
N732        C733   1.340       .  A
C733        C734   1.380       .  A
C733        H736   1.082       .  S
C734        C735   1.387       .  A
C735        H737   1.082       .  S
N738        N739   1.321       .  A
N738        C742   1.343       .  A
N739        C740   1.346       .  A
C740        C741   1.380       .  A
C740        H743   1.082       .  S
C741        C742   1.378       .  A
C741        C770   1.434       .  S
C742        H744   1.082       .  S
N745        N746   1.323       .  A
N745        C749   1.345       .  A
N745       Cu753   2.073       .  S
N746        C747   1.345       .  A
N746       Cu752   2.070       .  S
C747        C748   1.379       .  A
C747        H750   1.082       .  S
C748        C749   1.379       .  A
C748        C797   1.436       .  S
C749        H751   1.082       .  S
Cu752       N755   2.070       .  S
Cu753       N763   2.073       .  S
Cu754       N756   2.069       .  S
Cu754       N762   2.069       .  S
N755        N756   1.323       .  A
N755        C759   1.345       .  A
N756        C757   1.344       .  A
C757        C758   1.378       .  A
C757        H760   1.082       .  S
C758        C759   1.379       .  A
C758        C769   1.434       .  S
C759        H761   1.082       .  S
N762        N763   1.323       .  A
N762        C766   1.345       .  A
N763        C764   1.345       .  A
C764        C765   1.379       .  A
C764        H767   1.082       .  S
C765        C766   1.379       .  A
C765        C782   1.435       .  S
C766        H768   1.082       .  S
C769        C770   1.204       .  T
C771        C772   1.205       .  T
C773        C774   1.204       .  T
C774        C775   1.410       .  S
C775        C776   1.204       .  T
C777        C778   1.204       .  T
C779        C780   1.204       .  T
C780        C781   1.410       .  S
C781        C782   1.204       .  T
C783        C784   1.205       .  T
C785        C786   1.204       .  T
C786        C787   1.410       .  S
C787        C788   1.204       .  T
C789        C790   1.205       .  T
C791        C792   1.205       .  T
C792        C793   1.410       .  S
C793        C794   1.205       .  T
C795        C796   1.204       .  T
C797        C798   1.205   1_565  T
C798        C799   1.411       .  S
C799        C800   1.205       .  T
C801        C802   1.205       .  T
C802        C803   1.411       .  S
C803        C804   1.205       .  T
C805        C806   1.205       .  T
C807        C808   1.204       .  T
C808        C809   1.410       .  S
C809        C810   1.204       .  T
C811        C812   1.205       .  T
C812        C813   1.411       .  S
C813        C814   1.205       .  T
C815        C816   1.204       .  T
C817        C818   1.205       .  T
C819        C820   1.204       .  T
C821        C822   1.204       .  T
C822        C823   1.410       .  S
C823        C824   1.204   1_556  T
C825        C826   1.204       .  T
C827        C828   1.205       .  T
C828        C829   1.410       .  S
C829        C830   1.205   1_556  T
C831        C832   1.205       .  T
C833        C834   1.205       .  T
C834        C835   1.410   1_565  S
C835        C836   1.205   1_556  T
C837        C838   1.204       .  T
C839        C840   1.205       .  T
C840        C841   1.411   1_544  S
C841        C842   1.205       .  T
C843        C844   1.205       .  T
C845        C846   1.204   1_554  T
C846        C847   1.410       .  S
C847        C848   1.204       .  T
C849        C850   1.205       .  T
C850        C851   1.411       .  S
C851        C852   1.205   1_556  T
C853        C854   1.205       .  T
C855        C856   1.204       .  T
C856        C857   1.410   1_554  S
C857        C858   1.204       .  T
C859        C860   1.205       .  T
C860        C861   1.410       .  S
C861        C862   1.205   1_556  T
C863        C864   1.203       .  T
