geometry optimzed in LAMMPS
_audit_creation_date              2020-11-30 
_audit_creation_method            'lammps2cif' 
_symmetry_space_group_name_H-M    'P1' 
_symmetry_Int_Tables_number       1 
_symmetry_cell_setting            triclinic 
loop_ 
_symmetry_equiv_pos_as_xyz 
  x,y,z 
_cell_length_a                    29.58813529 
_cell_length_b                    28.758857562237324 
_cell_length_c                    20.73221078017258 
_cell_angle_alpha                 86.87923147232131 
_cell_angle_beta                  92.83192918586356 
_cell_angle_gamma                 91.02805832564293 
loop_ 
_atom_site_label 
_atom_site_type_symbol 
_atom_site_fract_x 
_atom_site_fract_y 
_atom_site_fract_z 
_atom_site_charge 
C1          C  0.15425818  0.12162163  0.06578125    -0.01400
C2          C  0.34265096  0.17998673  0.43798267    -0.01400
C3          C  0.09349669  0.31788764  0.44575221    -0.01400
O4          O  0.26109339  0.19393158  0.42675761    -0.56800
C5          C  0.13522608  0.28629496  0.44786965     0.75900
O6          O  0.22452215  0.16060139  0.03360933    -0.57900
C7          C  0.30053461  0.20859803  0.44382645     0.75800
C8          C  0.26765843  0.32676380  0.04564959     0.78200
Cd9        Cd  0.22535098  0.24451285  0.99665983     1.37500
O10         O  0.17158423  0.29789227  0.42054589    -0.56800
O11         O  0.23796314  0.32935302  0.48579035    -0.55600
C12         C  0.18877514  0.16220034  0.06422956     0.78200
O13         O  0.27823288  0.28633250  0.06791821    -0.57900
O14         O  0.14268024  0.24537330  0.95858361    -0.56400
O15         O  0.26541417  0.19624369  0.92264902    -0.56400
O16         O  0.21979106  0.16244357  0.51935952    -0.55600
C17         C  0.34721398  0.06631912  0.19630317    -0.01400
C18         C  0.29619805  0.37005456  0.05787637    -0.01400
C19         C  0.40513620  0.38011201  0.31340781    -0.01400
O20         O  0.39289411  0.00096336  0.23773151    -0.56800
C21         C  0.05856201  0.45777848  0.19900808     0.75900
O22         O  0.52341100  0.05040424  0.33307300    -0.57900
C23         C  0.39034653  0.03789568  0.20238219     0.75800
C24         C  0.44120765  0.41879180  0.31128306     0.78200
Cd25       Cd  0.47758855  0.00263731  0.25312204     1.37500
O26         O  0.06128996  0.48142514  0.24863412    -0.56800
O27         O  0.43498808  0.45802472  0.33306350    -0.55600
C28         C  0.01490447  0.08599660  0.29357256     0.78200
O29         O  0.47744680  0.41520874  0.28235193    -0.57900
O30         O  0.02033387  0.45833570  0.16918655    -0.56400
O31         O  0.42744338  0.05293873  0.17961081    -0.56400
O32         O  0.98666427  0.08491929  0.24628760    -0.55600
C33         C  0.09683249  0.42502035  0.18561720    -0.01400
O34         O  0.17815006  0.44610775  0.20848303    -0.56800
C35         C  0.30356905  0.03646176  0.18663839     0.75900
O36         O  0.25957192  0.44748401  0.03486860    -0.57900
C37         C  0.14116278  0.45224393  0.17472846     0.75800
C38         C  0.17994550  0.07557990  0.07063828     0.78200
Cd39       Cd  0.22155615  0.99131202  0.12290563     1.37500
O40         O  0.30229086  0.99282481  0.18075748    -0.56800
O41         O  0.22270052  0.07328140  0.07839651    -0.55600
C42         C  0.26406551  0.40992709  0.06992377     0.78200
O43         O  0.15922453  0.03692663  0.07237070    -0.57900
O44         O  0.26618054  0.05582587  0.17428544    -0.56400
O45         O  0.14393065  0.47871603  0.12460335    -0.56400
O46         O  0.24326506  0.40831110  0.12181918    -0.55600
C47         C  0.04253676  0.13066202  0.30431461    -0.01400
O48         O  0.01172949  0.31047836  0.43383666    -0.56800
C49         C  0.38578037  0.20941649  0.42765109     0.75900
O50         O  0.45910435  0.33076705  0.37589776    -0.57900
C51         C  0.04896544  0.28979633  0.44224612     0.75800
C52         C  0.01093362  0.17121359  0.31468692     0.78200
Cd53       Cd  0.47064568  0.24902594  0.38183298     1.37500
O54         O  0.38885339  0.23510481  0.37675739    -0.56800
O55         O  0.01481825  0.21225822  0.28880540    -0.55600
C56         C  0.43117248  0.33438179  0.32796132     0.78200
O57         O  0.48484226  0.16771207  0.36506693    -0.57900
O58         O  0.42219500  0.20523012  0.46293734    -0.56400
O59         O  0.04700736  0.24643703  0.43551235    -0.56400
O60         O  0.42699444  0.29838257  0.29469958    -0.54000
C61         C  0.35988296  0.40042424  0.13055999    -0.11200
C62         C  0.32581200  0.36664870  0.12337326     0.05800
C63         C  0.31540481  0.34019789  0.18175025    -0.06500
C64         C  0.34198076  0.34507635  0.23983832    -0.07200
C65         C  0.37857554  0.37684451  0.24513636    -0.01800
C66         C  0.38895332  0.40216209  0.18584919     0.05000
N67         N  0.43287161  0.42045240  0.17335040     0.67500
H68         H  0.36750923  0.42315827  0.08913548     0.16400
H69         H  0.33268744  0.32468819  0.28269699     0.16100
N70         N  0.27606956  0.31097185  0.18614016     0.75200
O71         O  0.46341665  0.39158855  0.16649053    -0.38200
O72         O  0.43639323  0.45955098  0.14364978    -0.38200
O73         O  0.28098064  0.26744564  0.18999822    -0.38900
O74         O  0.24009212  0.32748859  0.20499782    -0.38900
C75         C  0.30210195  0.40037541  0.42823595    -0.11200
C76         C  0.32065423  0.38454747  0.48987741     0.05800
C77         C  0.36673915  0.37143269  0.48964315    -0.06500
C78         C  0.39311209  0.38273957  0.43626731    -0.07200
C79         C  0.37378552  0.38868448  0.37285306    -0.01800
C80         C  0.32693290  0.40108639  0.37056002     0.05000
N81         N  0.30471675  0.41989296  0.31258613     0.67500
H82         H  0.26714246  0.41070734  0.42369713     0.16400
H83         H  0.42904971  0.37858293  0.44445518     0.16100
N84         N  0.39383602  0.33643948  0.03437050     0.75200
O85         O  0.26908568  0.40010370  0.29121177    -0.38200
O86         O  0.31069562  0.46250885  0.29775368    -0.38200
O87         O  0.39784338  0.29610057  0.01524186    -0.38900
O88         O  0.42639856  0.35227655  0.06824095    -0.38900
C89         C  0.06693401  0.38265936  0.00735677    -0.11200
C90         C  0.09674770  0.34549844  0.00519379     0.05800
C91         C  0.12189418  0.33396799  0.06388564    -0.06500
C92         C  0.12177341  0.36219401  0.11666636    -0.07200
C93         C  0.09070502  0.39776560  0.12132951    -0.01800
C94         C  0.06418687  0.40937222  0.06241165     0.05000
N95         N  0.03956255  0.45133359  0.05105936     0.67500
H96         H  0.04656183  0.39276077  0.96413839     0.16400
H97         H  0.14397338  0.35308571  0.15842164     0.16100
N98         N  0.13949732  0.28892905  0.07763670     0.75200
O99         O  0.57784082  0.48966031  0.02462353    -0.38200
O100        O  0.99696058  0.44816002  0.04615554    -0.38200
O101        O  0.17745557  0.29180999  0.60281195    -0.38900
O102        O  0.11131461  0.25547263  0.07954273    -0.38900
C103        C  0.11948576  0.41301284  0.30781304    -0.11200
C104        C  0.10061725  0.39331880  0.25064510     0.05800
C105        C  0.07927200  0.34889253  0.26016944    -0.06500
C106        C  0.07671451  0.32768602  0.32245747    -0.07200
C107        C  0.09506297  0.34744594  0.37941328    -0.01800
C108        C  0.11862049  0.39037867  0.36997078     0.05000
N109        N  0.14336570  0.41132590  0.42198129     0.67500
H110        H  0.13504948  0.44733191  0.30488210     0.16400
H111        H  0.05987057  0.29412716  0.32513027     0.16100
N112        N  0.06248053  0.32197640  0.20802124     0.75200
O113        O  0.18232373  0.39669919  0.43836315    -0.38200
O114        O  0.13265920  0.45128012  0.43770424    -0.38200
O115        O  0.08231012  0.28462777  0.19873281    -0.38900
O116        O  0.02214006  0.32663066  0.18669485    -0.38900
C117        C  0.34003768  0.10274960  0.01067214    -0.11200
C118        C  0.35051798  0.15058679  0.00651859     0.05800
C119        C  0.36156615  0.17018832  0.06821774    -0.06500
C120        C  0.35931424  0.14366750  0.12741681    -0.07200
C121        C  0.35009160  0.09600422  0.13021899    -0.01800
C122        C  0.34524074  0.07554250  0.06900201     0.05000
N123        N  0.35003563  0.02692826  0.06344158     0.67500
H124        H  0.33099445  0.08409868  0.46572362     0.16400
H125        H  0.36840493  0.16069332  0.17155539     0.16100
N126        N  0.37911209  0.21596959  0.07442259     0.75200
O127        O  0.31611307  0.00440966  0.04295831    -0.38200
O128        O  0.38865305  0.01257389  0.05187404    -0.38200
O129        O  0.35543841  0.24382227  0.10279173    -0.38900
O130        O  0.42159358  0.22021615  0.08137828    -0.38900
C131        C  0.37146774  0.11774523  0.37019818    -0.11200
C132        C  0.33897948  0.15138156  0.37450735     0.05800
C133        C  0.31182031  0.16109302  0.31579187    -0.06500
C134        C  0.31413526  0.13232421  0.26189932    -0.07200
C135        C  0.34440674  0.09494548  0.26065105    -0.01800
C136        C  0.37141750  0.08729222  0.32010571     0.05000
N137        N  0.39379637  0.04538795  0.33926490     0.67500
H138        H  0.39562708  0.11165224  0.41075071     0.16400
H139        H  0.29385099  0.14139402  0.21837979     0.16100
N140        N  0.28582299  0.20262829  0.30560558     0.75200
O141        O  0.43622766  0.04753394  0.34574833    -0.38200
O142        O  0.37346704  0.01728522  0.37716037    -0.38200
O143        O  0.30388499  0.24169185  0.31628495    -0.38900
O144        O  0.24831805  0.20138375  0.27408540    -0.38900
C145        C  0.08581637  0.15334620  0.12581032    -0.11200
C146        C  0.12530784  0.12611145  0.12797886     0.05800
C147        C  0.13785790  0.10530047  0.19017879    -0.06500
C148        C  0.11021307  0.10751097  0.24297940    -0.07200
C149        C  0.07148437  0.13502647  0.24194025    -0.01800
C150        C  0.05838239  0.15678226  0.18003084     0.05000
N151        N  0.01581154  0.17924368  0.16847294     0.67500
H152        H  0.07470125  0.17080605  0.08038555     0.16400
H153        H  0.12091731  0.08838658  0.28739450     0.16100
N154        N  0.18138117  0.08653235  0.20478297     0.75200
O155        O  0.01544239  0.22237308  0.15370984    -0.38200
O156        O  0.98149185  0.15498569  0.15274129    -0.38200
O157        O  0.21231209  0.11456573  0.22197440    -0.38900
O158        O  0.18396579  0.04452569  0.22531298    -0.38900
C159        C  0.05738039  0.10122595  0.42555031    -0.11200
C160        C  0.07219380  0.12708373  0.36997814     0.05800
C161        C  0.11133749  0.15506563  0.38032425    -0.06500
C162        C  0.13586795  0.15309728  0.44014324    -0.07200
C163        C  0.12327089  0.12478002  0.49515095    -0.01800
C164        C  0.08298420  0.09791022  0.48516708     0.05000
N165        N  0.05911352  0.07852186  0.03965805     0.67500
H166        H  0.02508081  0.08312745  0.42397747     0.16400
H167        H  0.16518150  0.17547636  0.44102065     0.16100
N168        N  0.12700526  0.18695385  0.33080865     0.75200
O169        O  0.01937875  0.08949521  0.05148351    -0.38200
O170        O  0.07369294  0.03974325  0.06159823    -0.38200
O171        O  0.10866186  0.22603127  0.32127544    -0.38900
O172        O  0.16513254  0.18092204  0.30842702    -0.38900
C173        C  0.15328731  0.12324100  0.56142917    -0.01400
C174        C  0.34664961  0.17960953  0.93851685    -0.01400
C175        C  0.09808850  0.31733191  0.94225032    -0.01400
O176        O  0.30629723  0.24395925  0.97731557    -0.56800
C177        C  0.14171049  0.28853291  0.94356829     0.75900
O178        O  0.18232539  0.20193901  0.58320019    -0.57900
C179        C  0.30476262  0.20904464  0.94323282     0.75800
C180        C  0.26302189  0.33097810  0.53666085     0.78200
Cd181      Cd  0.22153645  0.24635621  0.49446258     1.37500
O182        O  0.18016350  0.30765291  0.93718454    -0.56800
O183        O  0.23381321  0.32876822  0.00624855    -0.55600
C184        C  0.18809755  0.16330559  0.55806879     0.78200
O185        O  0.26628177  0.29306417  0.57090180    -0.57900
O186        O  0.13715604  0.24879149  0.48197242    -0.56400
O187        O  0.30212481  0.24516637  0.47450603    -0.56400
O188        O  0.17886634  0.20210883  0.08032673    -0.55600
C189        C  0.34868167  0.06602035  0.69540884    -0.01400
C190        C  0.28968546  0.37528418  0.55095285    -0.01400
C191        C  0.39891105  0.37756135  0.80809855    -0.01400
O192        O  0.39522797  0.00113418  0.73259756    -0.56800
C193        C  0.05190262  0.46393225  0.69793717     0.75900
O194        O  0.52096774  0.05184319  0.83287459    -0.57900
C195        C  0.39266648  0.03954192  0.70079653     0.75800
C196        C  0.43056641  0.41970912  0.80478363     0.78200
Cd197      Cd  0.47890054  0.00293063  0.75022828     1.37500
O198        O  0.01497841  0.46803924  0.66440471    -0.56800
O199        O  0.41437144  0.45955744  0.80479266    -0.55600
C200        C  0.02195396  0.08821860  0.79289318     0.78200
O201        O  0.47230508  0.41834954  0.79381643    -0.57900
O202        O  0.05338233  0.48547721  0.74961150    -0.56400
O203        O  0.42989894  0.05675430  0.68084453    -0.56400
O204        O  0.99673693  0.08573267  0.74266804    -0.55600
C205        C  0.09047610  0.43056525  0.68526130    -0.01400
O206        O  0.17230806  0.45176778  0.70555047    -0.56800
C207        C  0.30674937  0.03315775  0.68744290     0.75900
O208        O  0.25342052  0.45317273  0.52575185    -0.57900
C209        C  0.13484105  0.45775378  0.67301135     0.75800
C210        C  0.17895236  0.07699838  0.56771019     0.78200
Cd211      Cd  0.22241229  0.99252656  0.62374482     1.37500
O212        O  0.30637263  0.99946078  0.65095066    -0.56800
O213        O  0.22176978  0.07440395  0.57247269    -0.55600
C214        C  0.25666997  0.41516728  0.56014318     0.78200
O215        O  0.15837814  0.03880482  0.57644703    -0.57900
O216        O  0.26831595  0.04179197  0.70757409    -0.56400
O217        O  0.13716025  0.48392724  0.62254306    -0.56400
O218        O  0.23433086  0.41365631  0.61027615    -0.55600
C219        C  0.04821626  0.13356693  0.80485746    -0.01400
O220        O  0.01623125  0.30354351  0.94753978    -0.56800
C221        C  0.38933028  0.20920454  0.92847485     0.75900
O222        O  0.46269632  0.33310538  0.85691688    -0.57900
C223        C  0.05480467  0.28652126  0.94065860     0.75800
C224        C  0.01573984  0.17324007  0.81598063     0.78200
Cd225      Cd  0.47139898  0.25008927  0.87758704     1.37500
O226        O  0.38992977  0.23954073  0.88251453    -0.56800
O227        O  0.01880423  0.21446930  0.79044357    -0.55600
C228        C  0.42795156  0.33333895  0.81884345     0.78200
O229        O  0.47898267  0.16872008  0.85055246    -0.57900
O230        O  0.42732385  0.20139517  0.95839652    -0.56400
O231        O  0.05401882  0.24650926  0.91826344    -0.56400
O232        O  0.41817630  0.29449065  0.79485542    -0.54000
C233        C  0.35470639  0.40055591  0.62626119    -0.11200
C234        C  0.31709100  0.37113501  0.61883084     0.05800
C235        C  0.30319970  0.34735801  0.67806894    -0.06500
C236        C  0.33106277  0.34831896  0.73587102    -0.07200
C237        C  0.37091043  0.37559616  0.74094926    -0.01800
C238        C  0.38339945  0.39964431  0.68187905     0.05000
N239        N  0.42752445  0.41836757  0.67202337     0.67500
H240        H  0.36468877  0.42286499  0.58574211     0.16400
H241        H  0.31973045  0.32943220  0.77882661     0.16100
N242        N  0.25958720  0.32549826  0.68405666     0.75200
O243        O  0.45764031  0.39055554  0.65901086    -0.38200
O244        O  0.43062646  0.45943332  0.64848598    -0.38200
O245        O  0.25761476  0.28199951  0.69524559    -0.38900
O246        O  0.22718343  0.34930030  0.70080475    -0.38900
C247        C  0.30247354  0.39377357  0.93438324    -0.11200
C248        C  0.32437301  0.37866038  0.99410832     0.05800
C249        C  0.37083860  0.36763426  0.98931647    -0.06500
C250        C  0.39321199  0.37611792  0.93156897    -0.07200
C251        C  0.37046639  0.38328062  0.87083236    -0.01800
C252        C  0.32413455  0.39615816  0.87411660     0.05000
N253        N  0.29962440  0.41749814  0.81965403     0.67500
H254        H  0.26756297  0.40363082  0.93389174     0.16400
H255        H  0.42923908  0.37128202  0.93492421     0.16100
N256        N  0.38241006  0.33254157  0.52888336     0.75200
O257        O  0.26071412  0.40194050  0.80400931    -0.38200
O258        O  0.30954784  0.45894161  0.80248685    -0.38200
O259        O  0.37981896  0.29449319  0.50177734    -0.38900
O260        O  0.41430542  0.33807608  0.57041592    -0.38900
C261        C  0.06418200  0.38624804  0.50771342    -0.11200
C262        C  0.09193619  0.34681471  0.50845726     0.05800
C263        C  0.11546755  0.33547178  0.56896355    -0.06500
C264        C  0.11432265  0.36437941  0.62084283    -0.07200
C265        C  0.08486363  0.40178433  0.62240545    -0.01800
C266        C  0.06183653  0.41459917  0.56148479     0.05000
N267        N  0.04294415  0.45950115  0.54763676     0.67500
H268        H  0.04599053  0.39721157  0.46298334     0.16400
H269        H  0.13542148  0.35498137  0.66359639     0.16100
N270        N  0.13627918  0.29197074  0.58424255     0.75200
O271        O  0.56095204  0.48791368  0.51736364    -0.38200
O272        O  0.00078770  0.46228646  0.53585947    -0.38200
O273        O  0.17662177  0.28519520  0.11010982    -0.38900
O274        O  0.11142956  0.25760559  0.60049968    -0.38900
C275        C  0.11607757  0.41707870  0.80661804    -0.11200
C276        C  0.09458168  0.39877240  0.75033887     0.05800
C277        C  0.07249401  0.35466536  0.76045126    -0.06500
C278        C  0.07603973  0.33018334  0.82070082    -0.07200
C279        C  0.09723473  0.34820682  0.87683251    -0.01800
C280        C  0.11848681  0.39264081  0.86781276     0.05000
N281        N  0.14358367  0.41385168  0.91930668     0.67500
H282        H  0.13092173  0.45173755  0.80390011     0.16400
H283        H  0.06071910  0.29592656  0.82219203     0.16100
N284        N  0.04534842  0.33273295  0.71161886     0.75200
O285        O  0.18481153  0.40431004  0.92892476    -0.38200
O286        O  0.12948741  0.45115609  0.93993544    -0.38200
O287        O  0.06198074  0.29835768  0.68675965    -0.38900
O288        O  0.00314722  0.33221833  0.71665720    -0.38900
C289        C  0.33954247  0.10225883  0.50890385    -0.11200
C290        C  0.34697489  0.15068142  0.50550136     0.05800
C291        C  0.35696717  0.17046250  0.56725500    -0.06500
C292        C  0.35749060  0.14323727  0.62583260    -0.07200
C293        C  0.35024877  0.09522304  0.62850215    -0.01800
C294        C  0.34702694  0.07474501  0.56665716     0.05000
N295        N  0.36077702  0.02811358  0.55876202     0.67500
H296        H  0.32947718  0.08472537  0.96806814     0.16400
H297        H  0.36680467  0.16050256  0.66962108     0.16100
N298        N  0.36848935  0.21808851  0.57433674     0.75200
O299        O  0.33491651  0.00191559  0.52637112    -0.38200
O300        O  0.40269866  0.02104802  0.55898204    -0.38200
O301        O  0.33981406  0.24267179  0.59922806    -0.38900
O302        O  0.40982422  0.22792825  0.58531822    -0.38900
C303        C  0.37232097  0.11408240  0.87241978    -0.11200
C304        C  0.34273636  0.15058209  0.87543423     0.05800
C305        C  0.31829637  0.16282548  0.81553213    -0.06500
C306        C  0.31796963  0.13350185  0.76205119    -0.07200
C307        C  0.34597106  0.09419346  0.76070786    -0.01800
C308        C  0.37142590  0.08420141  0.82133047     0.05000
N309        N  0.39276478  0.04144804  0.83933029     0.67500
H310        H  0.39542043  0.10614454  0.91364493     0.16400
H311        H  0.29815453  0.14424520  0.71877432     0.16100
N312        N  0.30124942  0.20862671  0.80257513     0.75200
O313        O  0.43529300  0.04202127  0.84374510    -0.38200
O314        O  0.37254763  0.01367432  0.87782530    -0.38200
O315        O  0.32802346  0.24000148  0.78201698    -0.38900
O316        O  0.25939914  0.21379011  0.79113062    -0.38900
C317        C  0.08486003  0.15352249  0.62286562    -0.11200
C318        C  0.12562852  0.12851897  0.62434528     0.05800
C319        C  0.14081599  0.11020503  0.68676623    -0.06500
C320        C  0.11529237  0.11337440  0.74122334    -0.07200
C321        C  0.07603935  0.13967273  0.74162812    -0.01800
C322        C  0.05962059  0.15824421  0.67906307     0.05000
N323        N  0.01594025  0.17872187  0.66928810     0.67500
H324        H  0.07140861  0.16867844  0.57711320     0.16400
H325        H  0.12734038  0.09450931  0.78515287     0.16100
N326        N  0.18315847  0.08846766  0.69832553     0.75200
O327        O  0.01370351  0.22178445  0.65484804    -0.38200
O328        O  0.98268156  0.15319740  0.65291313    -0.38200
O329        O  0.21675006  0.11409870  0.71274416    -0.38900
O330        O  0.18300590  0.04626451  0.71848080    -0.38900
C331        C  0.05851960  0.10724056  0.92704908    -0.11200
C332        C  0.07740435  0.12905679  0.87117029     0.05800
C333        C  0.12011795  0.15111419  0.88190305    -0.06500
C334        C  0.14412219  0.14525916  0.94208652    -0.07200
C335        C  0.12577852  0.12325878  0.99840080    -0.01800
C336        C  0.08177220  0.10310284  0.98845742     0.05000
N337        N  0.06804295  0.06483621  0.53345392     0.67500
H338        H  0.02436567  0.09324792  0.92370724     0.16400
H339        H  0.17731105  0.16083228  0.94345127     0.16100
N340        N  0.13963345  0.18162270  0.83356422     0.75200
O341        O  0.03353125  0.07359353  0.56380006    -0.38200
O342        O  0.07822973  0.02292260  0.52822004    -0.38200
O343        O  0.11913290  0.21779145  0.81221365    -0.38900
O344        O  0.18023015  0.17643909  0.81998533    -0.38900
C345        C  0.15359940  0.61865569  0.06547543    -0.01400
C346        C  0.34544114  0.67677776  0.44019190    -0.01400
C347        C  0.09829942  0.81733758  0.43924486    -0.01400
O348        O  0.26424155  0.68233419  0.44573938    -0.56800
C349        C  0.14196502  0.78969679  0.43981610     0.75900
O350        O  0.17938829  0.69894254  0.08314345    -0.57900
C351        C  0.30198735  0.70341517  0.44337864     0.75800
C352        C  0.26292670  0.82766880  0.03944920     0.78200
Cd353      Cd  0.22299708  0.74208102  0.99849516     1.37500
O354        O  0.17980364  0.81069348  0.44320933    -0.56800
O355        O  0.23744866  0.82917128  0.48719645    -0.55600
C356        C  0.18710672  0.65989339  0.06095347     0.78200
O357        O  0.26767369  0.78967917  0.07320081    -0.57900
O358        O  0.13962956  0.74136663  0.97485380    -0.56400
O359        O  0.30267669  0.73581417  0.99218953    -0.56400
O360        O  0.20955614  0.68086367  0.58513367    -0.55600
C361        C  0.35130876  0.56241452  0.19935074    -0.01400
C362        C  0.28969923  0.87211765  0.05228531    -0.01400
C363        C  0.40062569  0.87942809  0.30672883    -0.01400
O364        O  0.39861572  0.49788019  0.24003848    -0.56800
C365        C  0.05050424  0.95442632  0.18905660     0.75900
O366        O  0.52586753  0.55122498  0.33163406    -0.57900
C367        C  0.39518545  0.53491744  0.20506066     0.75800
C368        C  0.43522506  0.91961538  0.30529741     0.78200
Cd369      Cd  0.48351075  0.50019067  0.25424622     1.37500
O370        O  0.04692755  0.99794087  0.17909867    -0.56800
O371        O  0.42817035  0.95806667  0.32941423    -0.55600
C372        C  0.01675128  0.58685202  0.29558576     0.78200
O373        O  0.47101780  0.91792125  0.27474181    -0.57900
O374        O  0.01688823  0.93473584  0.21366547    -0.56400
O375        O  0.43188868  0.55048166  0.18173714    -0.56400
O376        O  0.99209778  0.58217722  0.24498663    -0.55600
C377        C  0.09283813  0.92591240  0.18140106    -0.01400
O378        O  0.17249436  0.95148833  0.20729366    -0.56800
C379        C  0.30879430  0.53098692  0.19076681     0.75900
O380        O  0.25247364  0.94908107  0.02856632    -0.57900
C381        C  0.13614735  0.95528777  0.17137674     0.75800
C382        C  0.18085962  0.57323441  0.07108595     0.78200
Cd383      Cd  0.22578147  0.48965090  0.12621123     1.37500
O384        O  0.30935974  0.49271694  0.16384958    -0.56800
O385        O  0.22349437  0.57238242  0.08221077    -0.55600
C386        C  0.25708991  0.91158530  0.06348027     0.78200
O387        O  0.16156554  0.53375210  0.07073425    -0.57900
O388        O  0.26955155  0.54516828  0.19920061    -0.56400
O389        O  0.13952344  0.98001892  0.11974684    -0.56400
O390        O  0.23724030  0.91059198  0.11584097    -0.55600
C391        C  0.04394757  0.63203186  0.30354326    -0.01400
O392        O  0.01574049  0.80578396  0.43803543    -0.56800
C393        C  0.38763055  0.70773626  0.43024228     0.75900
O394        O  0.41008630  0.79374986  0.30853173    -0.57900
C395        C  0.05411990  0.78745517  0.43536903     0.75800
C396        C  0.01289364  0.67409689  0.30712667     0.78200
Cd397      Cd  0.46984696  0.74933213  0.37834070     1.37500
O398        O  0.38926999  0.73403422  0.37983224    -0.56800
O399        O  0.97624738  0.66992468  0.33591980    -0.55600
C400        C  0.42736492  0.83359213  0.31772179     0.78200
O401        O  0.48216682  0.66746491  0.35533789    -0.57900
O402        O  0.42453967  0.70464364  0.46470415    -0.56400
O403        O  0.05282483  0.74624411  0.41717440    -0.56400
O404        O  0.46713055  0.83306599  0.34334377    -0.54000
C405        C  0.35499152  0.89992387  0.12427341    -0.11200
C406        C  0.31851047  0.86880874  0.11873240     0.05800
C407        C  0.30608295  0.84525247  0.17877456    -0.06500
C408        C  0.33418262  0.84841576  0.23577042    -0.07200
C409        C  0.37304353  0.87727558  0.23934186    -0.01800
C410        C  0.38413434  0.90119331  0.17931285     0.05000
N411        N  0.42782483  0.91975962  0.16645814     0.67500
H412        H  0.36388659  0.92158762  0.08239635     0.16400
H413        H  0.32376029  0.82974044  0.27945448     0.16100
N414        N  0.26336914  0.82185433  0.18663829     0.75200
O415        O  0.45706265  0.89178404  0.15077429    -0.38200
O416        O  0.43076907  0.96107312  0.14373362    -0.38200
O417        O  0.26309940  0.77828682  0.19761372    -0.38900
O418        O  0.23093833  0.84437941  0.20605565    -0.38900
C419        C  0.30282240  0.90251701  0.42921419    -0.11200
C420        C  0.32119911  0.88256448  0.48903569     0.05800
C421        C  0.36574840  0.86516526  0.48537201    -0.06500
C422        C  0.39039320  0.87146975  0.42915946    -0.07200
C423        C  0.37079988  0.88530329  0.36821241    -0.01800
C424        C  0.32643944  0.90433584  0.37025161     0.05000
N425        N  0.30576411  0.92955053  0.31562479     0.67500
H426        H  0.26885212  0.91590551  0.42705441     0.16400
H427        H  0.42475106  0.85918273  0.43289977     0.16100
N428        N  0.37968098  0.82736100  0.02930990     0.75200
O429        O  0.27217706  0.91141031  0.28620243    -0.38200
O430        O  0.30890883  0.97333883  0.31362757    -0.38200
O431        O  0.37791069  0.78810495  0.00573668    -0.38900
O432        O  0.41163486  0.83538248  0.06978888    -0.38900
C433        C  0.06813323  0.87996724  0.00599420    -0.11200
C434        C  0.09807361  0.84270683  0.00619830     0.05800
C435        C  0.12313359  0.83259073  0.06566867    -0.06500
C436        C  0.12263170  0.86283006  0.11632109    -0.07200
C437        C  0.08964390  0.89684766  0.11928906    -0.01800
C438        C  0.06298606  0.90648542  0.06036101     0.05000
N439        N  0.03083210  0.94293010  0.05183135     0.67500
H440        H  0.04753822  0.88851749  0.96243372     0.16400
H441        H  0.14476111  0.85553643  0.15867622     0.16100
N442        N  0.13911243  0.78718207  0.08351679     0.75200
O443        O  0.56720961  0.98925031  0.01905391    -0.38200
O444        O  0.99221322  0.93461687  0.07254422    -0.38200
O445        O  0.17714959  0.77891265  0.60429666    -0.38900
O446        O  0.10997589  0.75463323  0.08590828    -0.38900
C447        C  0.11152012  0.91869826  0.30488261    -0.11200
C448        C  0.09753912  0.89612612  0.24767651     0.05800
C449        C  0.08281690  0.84899206  0.25710315    -0.06500
C450        C  0.08725564  0.82581867  0.31773990    -0.07200
C451        C  0.09923947  0.84816827  0.37481210    -0.01800
C452        C  0.11362587  0.89547435  0.36702362     0.05000
N453        N  0.13416805  0.91967250  0.41956941     0.67500
H454        H  0.12121517  0.95520850  0.30145177     0.16400
H455        H  0.07867563  0.78914390  0.31987844     0.16100
N456        N  0.05911575  0.82367688  0.20859898     0.75200
O457        O  0.17549048  0.91327958  0.43475893    -0.38200
O458        O  0.11553981  0.95553656  0.43770830    -0.38200
O459        O  0.07871263  0.78897465  0.18917870    -0.38900
O460        O  0.01670468  0.82115123  0.21064099    -0.38900
C461        C  0.34063035  0.60004467  0.01381263    -0.11200
C462        C  0.35000047  0.64812217  0.01039843     0.05800
C463        C  0.36142172  0.66723432  0.07257657    -0.06500
C464        C  0.36121544  0.63974762  0.13097648    -0.07200
C465        C  0.35293769  0.59197814  0.13302532    -0.01800
C466        C  0.34789619  0.57208038  0.07113165     0.05000
N467        N  0.35846080  0.52476614  0.06259035     0.67500
H468        H  0.33530474  0.58061479  0.46944460     0.16400
H469        H  0.37055561  0.65647264  0.17526020     0.16100
N470        N  0.37477944  0.71430227  0.08061532     0.75200
O471        O  0.32925854  0.50000797  0.03385421    -0.38200
O472        O  0.39948572  0.51584211  0.05620719    -0.38200
O473        O  0.34869108  0.73902807  0.11034697    -0.38900
O474        O  0.41670324  0.72312756  0.08613833    -0.38900
C475        C  0.37526027  0.61437033  0.37317370    -0.11200
C476        C  0.34267067  0.64784558  0.37723967     0.05800
C477        C  0.31530997  0.65726573  0.31880772    -0.06500
C478        C  0.31716140  0.62816948  0.26524651    -0.07200
C479        C  0.34798059  0.59115265  0.26375998    -0.01800
C480        C  0.37536591  0.58395440  0.32290109     0.05000
N481        N  0.39686855  0.54169531  0.34227657     0.67500
H482        H  0.39915980  0.60839038  0.41404797     0.16400
H483        H  0.29632971  0.63694767  0.22213174     0.16100
N484        N  0.29126834  0.69995891  0.30789182     0.75200
O485        O  0.43849349  0.54390451  0.35829400    -0.38200
O486        O  0.37295945  0.51090945  0.37072584    -0.38200
O487        O  0.31335667  0.73786255  0.30547938    -0.38900
O488        O  0.25144404  0.69932363  0.28338761    -0.38900
C489        C  0.08860218  0.65451780  0.12694224    -0.11200
C490        C  0.12631265  0.62487593  0.12839123     0.05800
C491        C  0.13689857  0.60094414  0.18894692    -0.06500
C492        C  0.10830355  0.60228963  0.24064208    -0.07200
C493        C  0.07288550  0.63400575  0.24153872    -0.01800
C494        C  0.06115929  0.65804130  0.18077368     0.05000
N495        N  0.01815292  0.67965709  0.16858668     0.67500
H496        H  0.07808733  0.67261872  0.08173180     0.16400
H497        H  0.11628732  0.58015866  0.28346152     0.16100
N498        N  0.18028863  0.58189801  0.20384850     0.75200
O499        O  0.01673765  0.72266623  0.15339827    -0.38200
O500        O  0.98424959  0.65453515  0.15365092    -0.38200
O501        O  0.21299154  0.61023213  0.21039790    -0.38900
O502        O  0.18309322  0.54176496  0.23140369    -0.38900
C503        C  0.04639157  0.61660938  0.42821295    -0.11200
C504        C  0.07069046  0.62848372  0.37178157     0.05800
C505        C  0.11798891  0.63494710  0.38219895    -0.06500
C506        C  0.13905299  0.62215396  0.44255980    -0.07200
C507        C  0.11507765  0.61713028  0.50018196    -0.01800
C508        C  0.06724840  0.61060102  0.49147117     0.05000
N509        N  0.05294184  0.58171787  0.04694160     0.67500
H510        H  0.01021444  0.61075363  0.42266583     0.16400
H511        H  0.17568178  0.62447578  0.44664269     0.16100
N512        N  0.14518313  0.65927060  0.33566006     0.75200
O513        O  0.01069262  0.58628876  0.04922281    -0.38200
O514        O  0.07267807  0.55428141  0.08821392    -0.38200
O515        O  0.13264241  0.69812377  0.31030517    -0.38900
O516        O  0.18525960  0.64658317  0.32957937    -0.38900
C517        C  0.14475599  0.62352821  0.56532609    -0.01400
C518        C  0.34416363  0.67759374  0.94269439    -0.01400
C519        C  0.09813732  0.81313634  0.94468339    -0.01400
O520        O  0.26361808  0.69677162  0.92322495    -0.56800
C521        C  0.13941393  0.78141502  0.94682592     0.75900
O522        O  0.16064410  0.69692546  0.50814805    -0.57900
C523        C  0.30214238  0.70578767  0.95036319     0.75800
C524        C  0.26298394  0.83002939  0.53774854     0.78200
Cd525      Cd  0.22367023  0.74542609  0.49264368     1.37500
O526        O  0.17726353  0.79604039  0.92700990    -0.56800
O527        O  0.23640130  0.82598683  0.99004347    -0.55600
C528        C  0.17306151  0.66899626  0.55418925     0.78200
O529        O  0.26557165  0.79197915  0.57208554    -0.57900
O530        O  0.14355103  0.74574939  0.44387993    -0.56400
O531        O  0.30096338  0.74667743  0.44836683    -0.56400
O532        O  0.22094633  0.65882728  0.02619374    -0.55600
C533        C  0.34494874  0.56531810  0.69851132    -0.01400
C534        C  0.29088492  0.87378183  0.55123175    -0.01400
C535        C  0.39854298  0.87989110  0.80794781    -0.01400
O536        O  0.39045401  0.49981332  0.73826163    -0.56800
C537        C  0.05341373  0.94994196  0.69651763     0.75900
O538        O  0.51692408  0.55153342  0.83126161    -0.57900
C539        C  0.38790271  0.53704713  0.70367503     0.75800
C540        C  0.43018616  0.92220692  0.80470656     0.78200
Cd541      Cd  0.47462844  0.50258477  0.75111338     1.37500
O542        O  0.03800667  0.98376154  0.66035537    -0.56800
O543        O  0.41327247  0.96148216  0.79360871    -0.55600
C544        C  0.01219416  0.59021853  0.79906678     0.78200
O545        O  0.47308221  0.92131986  0.80451598    -0.57900
O546        O  0.03242525  0.94194566  0.74735692    -0.56400
O547        O  0.42474277  0.55225023  0.67988581    -0.56400
O548        O  0.98826530  0.58797712  0.74734449    -0.55600
C549        C  0.09462068  0.91975979  0.68455055    -0.01400
O550        O  0.17518009  0.94659349  0.70631882    -0.56800
C551        C  0.30104133  0.53643240  0.68764452     0.75900
O552        O  0.25926886  0.95359366  0.53117533    -0.57900
C553        C  0.13782751  0.94995451  0.67250168     0.75800
C554        C  0.17384342  0.57960768  0.57103635     0.78200
Cd555      Cd  0.21927577  0.49480277  0.62027366     1.37500
O556        O  0.29928250  0.49323315  0.67915301    -0.56800
O557        O  0.21683730  0.57952062  0.57545619    -0.55600
C558        C  0.25902400  0.91405975  0.56168954     0.78200
O559        O  0.15479022  0.53993772  0.57522135    -0.57900
O560        O  0.26397624  0.55657518  0.67618672    -0.56400
O561        O  0.13966830  0.97605367  0.62167148    -0.56400
O562        O  0.23458110  0.91120802  0.60977726    -0.55600
C563        C  0.04136461  0.63364855  0.80980149    -0.01400
O564        O  0.01533382  0.80663143  0.94405506    -0.56800
C565        C  0.38594532  0.70823410  0.93093256     0.75900
O566        O  0.40913338  0.79491043  0.80739137    -0.57900
C567        C  0.05273021  0.78589721  0.94245622     0.75800
C568        C  0.01132845  0.67481880  0.82036869     0.78200
Cd569      Cd  0.46700748  0.75036054  0.87863032     1.37500
O570        O  0.38609222  0.73639133  0.88232308    -0.56800
O571        O  0.01819474  0.71607330  0.79717457    -0.55600
C572        C  0.42591931  0.83469355  0.81844526     0.78200
O573        O  0.47913155  0.66907687  0.86122048    -0.57900
O574        O  0.42366932  0.70382302  0.96284318    -0.56400
O575        O  0.04974975  0.74402660  0.92690188    -0.56400
O576        O  0.46492264  0.83423466  0.84641708    -0.54000
C577        C  0.35662756  0.89896454  0.62466162    -0.11200
C578        C  0.31866049  0.86974976  0.61843766     0.05800
C579        C  0.30418364  0.84756121  0.67843815    -0.06500
C580        C  0.33139611  0.85015678  0.73636195    -0.07200
C581        C  0.37124136  0.87734565  0.74065947    -0.01800
C582        C  0.38468600  0.89966372  0.68088357     0.05000
N583        N  0.42909916  0.91797981  0.67151401     0.67500
H584        H  0.36708125  0.91997743  0.58304509     0.16400
H585        H  0.31963891  0.83238193  0.77992631     0.16100
N586        N  0.26053289  0.82588099  0.68511209     0.75200
O587        O  0.45942201  0.88944667  0.66227690    -0.38200
O588        O  0.43286194  0.95804206  0.64466034    -0.38200
O589        O  0.25862441  0.78236539  0.69628370    -0.38900
O590        O  0.22900071  0.84964672  0.70457093    -0.38900
C591        C  0.30110102  0.90199720  0.93040623    -0.11200
C592        C  0.31942120  0.88156092  0.98991538     0.05800
C593        C  0.36377553  0.86399218  0.98627040    -0.06500
C594        C  0.38868569  0.87104179  0.93049670    -0.07200
C595        C  0.36916798  0.88549940  0.86963312    -0.01800
C596        C  0.32473533  0.90426158  0.87161914     0.05000
N597        N  0.30324704  0.92809205  0.81637730     0.67500
H598        H  0.26714800  0.91513754  0.92793292     0.16400
H599        H  0.42298633  0.85873028  0.93447256     0.16100
N600        N  0.38262460  0.82953558  0.52924822     0.75200
O601        O  0.26702812  0.91118367  0.79232230    -0.38200
O602        O  0.31021608  0.97126103  0.80785261    -0.38200
O603        O  0.38136653  0.79000050  0.50641771    -0.38900
O604        O  0.41548414  0.83886406  0.56765595    -0.38900
C605        C  0.06496149  0.87812931  0.50807073    -0.11200
C606        C  0.09747530  0.84400518  0.50293709     0.05800
C607        C  0.12363812  0.83160625  0.56058427    -0.06500
C608        C  0.12365803  0.85954839  0.61380559    -0.07200
C609        C  0.08933886  0.89171622  0.62145438    -0.01800
C610        C  0.05799187  0.89911600  0.56651474     0.05000
N611        N  0.01578275  0.92207152  0.56809500     0.67500
H612        H  0.04211087  0.88656801  0.46678882     0.16400
H613        H  0.14711618  0.85133928  0.65432057     0.16100
N614        N  0.14002643  0.78546565  0.57288607     0.75200
O615        O  0.57797320  0.99111275  0.52423364    -0.38200
O616        O  0.98082496  0.89661178  0.56210744    -0.38200
O617        O  0.17497349  0.78306727  0.11879295    -0.38900
O618        O  0.11139014  0.75254582  0.57128350    -0.38900
C619        C  0.11898143  0.90968387  0.80614387    -0.11200
C620        C  0.10187965  0.88813719  0.74941705     0.05800
C621        C  0.08356131  0.84230532  0.76001659    -0.06500
C622        C  0.08496254  0.82031941  0.82195948    -0.07200
C623        C  0.10031383  0.84213234  0.87833689    -0.01800
C624        C  0.11985250  0.88724672  0.86864507     0.05000
N625        N  0.14303863  0.91026487  0.92026211     0.67500
H626        H  0.13096943  0.94544833  0.80260012     0.16400
H627        H  0.07201426  0.78509937  0.82543784     0.16100
N628        N  0.06109814  0.81668141  0.71056559     0.75200
O629        O  0.18264599  0.89809135  0.93779785    -0.38200
O630        O  0.12933000  0.94916069  0.93607108    -0.38200
O631        O  0.08350619  0.78569942  0.68645287    -0.38900
O632        O  0.01915598  0.80943724  0.71442245    -0.38900
C633        C  0.34242891  0.59960133  0.51231207    -0.11200
C634        C  0.34928997  0.64804269  0.50818378     0.05800
C635        C  0.35664740  0.66857234  0.56990370    -0.06500
C636        C  0.35515278  0.64235122  0.62913725    -0.07200
C637        C  0.34837158  0.59449198  0.63232420    -0.01800
C638        C  0.34669877  0.57319136  0.57138417     0.05000
N639        N  0.35561086  0.52509496  0.56708774     0.67500
H640        H  0.33012767  0.58235888  0.97092055     0.16400
H641        H  0.36205932  0.66030469  0.67305952     0.16100
N642        N  0.36715178  0.71619187  0.57649893     0.75200
O643        O  0.32375732  0.49922169  0.54776050    -0.38200
O644        O  0.39534138  0.51430048  0.55516836    -0.38200
O645        O  0.33643104  0.74092169  0.59605146    -0.38900
O646        O  0.40764281  0.72636395  0.59299723    -0.38900
C647        C  0.37045290  0.61398511  0.87430277    -0.11200
C648        C  0.33953945  0.64908298  0.87893371     0.05800
C649        C  0.31358608  0.66062665  0.81965161    -0.06500
C650        C  0.31344533  0.63141966  0.76608367    -0.07200
C651        C  0.34248293  0.59309067  0.76393547    -0.01800
C652        C  0.36915251  0.58386797  0.82358781     0.05000
N653        N  0.38886321  0.54051963  0.84279685     0.67500
H654        H  0.39436453  0.60667090  0.91477418     0.16400
H655        H  0.29289083  0.64152947  0.72318255     0.16100
N656        N  0.29425242  0.70556590  0.80691213     0.75200
O657        O  0.43107090  0.54015821  0.85425093    -0.38200
O658        O  0.36506505  0.51191241  0.87534700    -0.38200
O659        O  0.32000018  0.73920301  0.79102754    -0.38900
O660        O  0.25267741  0.70840414  0.79104473    -0.38900
C661        C  0.08200929  0.65862569  0.63063892    -0.11200
C662        C  0.11897688  0.62850821  0.62961927     0.05800
C663        C  0.13128266  0.60457666  0.68980264    -0.06500
C664        C  0.10419522  0.60596345  0.74316420    -0.07200
C665        C  0.06864689  0.63737326  0.74599700    -0.01800
C666        C  0.05599374  0.66247533  0.68596994     0.05000
N667        N  0.01513261  0.68873001  0.67675130     0.67500
H668        H  0.07097606  0.67704263  0.58595228     0.16400
H669        H  0.11376523  0.58431170  0.78586313     0.16100
N670        N  0.17548035  0.58680702  0.70311582     0.75200
O671        O  0.01516741  0.72632850  0.64242684    -0.38200
O672        O  0.97759185  0.66984984  0.68932095    -0.38200
O673        O  0.20747102  0.61611275  0.70842499    -0.38900
O674        O  0.18001673  0.54682613  0.73068782    -0.38900
C675        C  0.05206670  0.60905684  0.93289137    -0.11200
C676        C  0.07120246  0.62791330  0.87537034     0.05800
C677        C  0.11617708  0.64467702  0.88281188    -0.06500
C678        C  0.14162630  0.63623127  0.94111001    -0.07200
C679        C  0.12306995  0.61847464  0.99972513    -0.01800
C680        C  0.07665893  0.60317279  0.99356387     0.05000
N681        N  0.03943276  0.59408127  0.54337436     0.67500
H682        H  0.01676627  0.59867383  0.93096068     0.16400
H683        H  0.17637772  0.64649710  0.93895742     0.16100
N684        N  0.13645493  0.67355882  0.83348557     0.75200
O685        O  0.99761827  0.60247879  0.54055441    -0.38200
O686        O  0.05461275  0.56527104  0.58680199    -0.38200
O687        O  0.12057751  0.71324427  0.81808049    -0.38900
O688        O  0.17485675  0.66355402  0.81498907    -0.38900
C689        C  0.65004249  0.12689638  0.06739511    -0.01400
C690        C  0.84393210  0.18093689  0.43133635    -0.01400
C691        C  0.59691484  0.31907758  0.44853946    -0.01400
O692        O  0.80590506  0.24623396  0.47228112    -0.56800
C693        C  0.63918645  0.28833270  0.45060403     0.75900
O694        O  0.66085226  0.20561865  0.02695087    -0.57900
C695        C  0.80297840  0.21163363  0.43753375     0.75800
C696        C  0.76581056  0.33174756  0.04753181     0.78200
Cd697      Cd  0.72560808  0.24920284  0.99523624     1.37500
O698        O  0.67553705  0.30084348  0.42367669    -0.56800
O699        O  0.73545135  0.33253667  0.50264388    -0.55600
C700        C  0.67838792  0.17209025  0.05972604     0.78200
O701        O  0.77147186  0.29215395  0.07693820    -0.57900
O702        O  0.64276985  0.24834611  0.95737188    -0.56400
O703        O  0.80327313  0.25014981  0.95041286    -0.56400
O704        O  0.72332351  0.16447274  0.52964550    -0.55600
C705        C  0.84658842  0.06850130  0.18966876    -0.01400
C706        C  0.79500282  0.37496917  0.06050691    -0.01400
C707        C  0.89860222  0.37944905  0.31885737    -0.01400
O708        O  0.88949212  0.00058024  0.22816887    -0.56800
C709        C  0.56249121  0.45995655  0.20164684     0.75900
O710        O  0.02106940  0.04718949  0.32548727    -0.57900
C711        C  0.88825208  0.03781553  0.19371763     0.75800
C712        C  0.93184222  0.42049189  0.31515417     0.78200
Cd713      Cd  0.97429463  0.00094998  0.24581633     1.37500
O714        O  0.56454126  0.48359999  0.25146021    -0.56800
O715        O  0.91613809  0.46000213  0.30126878    -0.55600
C716        C  0.51819361  0.08839167  0.29888851     0.78200
O717        O  0.97470964  0.41816370  0.31676577    -0.57900
O718        O  0.52460276  0.46037719  0.17042980    -0.56400
O719        O  0.92565084  0.05091418  0.16988132    -0.56400
O720        O  0.49143848  0.08617928  0.24973819    -0.55600
C721        C  0.60158326  0.42806758  0.18851954    -0.01400
O722        O  0.68235661  0.45453926  0.20843941    -0.56800
C723        C  0.80115159  0.04220993  0.18235640     0.75900
O724        O  0.76687702  0.45547875  0.03375539    -0.57900
C725        C  0.64473557  0.45743125  0.17534588     0.75800
C726        C  0.67876306  0.08295271  0.07167949     0.78200
Cd727      Cd  0.72005914  0.99770545  0.12198528     1.37500
O728        O  0.79628964  0.99841865  0.18724643    -0.56800
O729        O  0.72116435  0.08275970  0.08451023    -0.55600
C730        C  0.76468808  0.41706997  0.06690785     0.78200
O731        O  0.65991395  0.04332502  0.06724920    -0.57900
O732        O  0.76640445  0.06389921  0.16091373    -0.56400
O733        O  0.64551197  0.48345713  0.12421491    -0.56400
O734        O  0.73909866  0.41686593  0.11330654    -0.55600
C735        C  0.54508887  0.13346875  0.31017719    -0.01400
O736        O  0.51426541  0.30679645  0.44869229    -0.56800
C737        C  0.88755510  0.20794190  0.41795000     0.75900
O738        O  0.91630035  0.30754696  0.38107249    -0.57900
C739        C  0.55289818  0.28902699  0.44521212     0.75800
C740        C  0.51302506  0.17323658  0.32126446     0.78200
Cd741      Cd  0.97057902  0.24890608  0.37488845     1.37500
O742        O  0.89094242  0.23122446  0.36496936    -0.56800
O743        O  0.51702273  0.21460821  0.29681698    -0.55600
C744        C  0.92367483  0.33297336  0.33100350     0.78200
O745        O  0.98303160  0.16661484  0.35898916    -0.57900
O746        O  0.92390098  0.20391134  0.45330345    -0.56400
O747        O  0.55211817  0.24778634  0.42676312    -0.56400
O748        O  0.95276472  0.31751737  0.29405103    -0.54000
C749        C  0.85636224  0.40259389  0.13775977    -0.11200
C750        C  0.82083635  0.37113711  0.12846057     0.05800
C751        C  0.80543633  0.34758917  0.18658945    -0.06500
C752        C  0.83175482  0.34924472  0.24563331    -0.07200
C753        C  0.87132600  0.37692529  0.25170005    -0.01800
C754        C  0.88479056  0.40089373  0.19333929     0.05000
N755        N  0.92983107  0.41761988  0.18467301     0.67500
H756        H  0.86543293  0.42581111  0.09772665     0.16400
H757        H  0.81944504  0.33101399  0.28843246     0.16100
N758        N  0.76084376  0.32761564  0.19010938     0.75200
O759        O  0.96181927  0.38970221  0.19656872    -0.38200
O760        O  0.93607387  0.45267333  0.14674776    -0.38200
O761        O  0.75640801  0.28416488  0.19918391    -0.38900
O762        O  0.72877356  0.35283663  0.20435574    -0.38900
C763        C  0.80177009  0.39650252  0.44098306    -0.11200
C764        C  0.82407648  0.38404784  0.50143862     0.05800
C765        C  0.87213132  0.37853346  0.49914840    -0.06500
C766        C  0.89370392  0.38452010  0.44033911    -0.07200
C767        C  0.87016216  0.38831913  0.37974343    -0.01800
C768        C  0.82355162  0.39911896  0.38156786     0.05000
N769        N  0.79872027  0.41921739  0.32660195     0.67500
H770        H  0.76631781  0.40426680  0.43918946     0.16400
H771        H  0.93010547  0.38054572  0.44155944     0.16100
N772        N  0.89987811  0.35327088  0.04664492     0.75200
O773        O  0.76102019  0.40131210  0.30985553    -0.38200
O774        O  0.80551160  0.46171452  0.31202789    -0.38200
O775        O  0.90059438  0.30983828  0.04481774    -0.38900
O776        O  0.93527025  0.37321363  0.06824017    -0.38900
C777        C  0.57038466  0.38684966  0.01077432    -0.11200
C778        C  0.59684256  0.34701860  0.00886832     0.05800
C779        C  0.62109412  0.33333834  0.06786763    -0.06500
C780        C  0.62249707  0.36132028  0.12130758    -0.07200
C781        C  0.59483896  0.40003777  0.12501466    -0.01800
C782        C  0.57070258  0.41441708  0.06535636     0.05000
N783        N  0.55291773  0.45995509  0.05311094     0.67500
H784        H  0.55128158  0.39889212  0.96731228     0.16400
H785        H  0.64338685  0.35004574  0.16337871     0.16100
N786        N  0.63816954  0.28768561  0.07984048     0.75200
O787        O  0.05829596  0.48375840  0.01834623    -0.38200
O788        O  0.51061569  0.46383630  0.04405718    -0.38200
O789        O  0.68350557  0.29681690  0.60332606    -0.38900
O790        O  0.61009045  0.25547768  0.09282961    -0.38900
C791        C  0.62565082  0.41469091  0.31080325    -0.11200
C792        C  0.60550494  0.39606077  0.25368892     0.05800
C793        C  0.58050557  0.35353343  0.26447078    -0.06500
C794        C  0.57906185  0.33137721  0.32619602    -0.07200
C795        C  0.59858720  0.34977275  0.38289208    -0.01800
C796        C  0.62306721  0.39245418  0.37348036     0.05000
N797        N  0.64523986  0.41467240  0.42655651     0.67500
H798        H  0.64235720  0.44842015  0.30781357     0.16400
H799        H  0.56131841  0.29831603  0.32826723     0.16100
N800        N  0.55515184  0.33058604  0.21487776     0.75200
O801        O  0.68291583  0.39986028  0.44882960    -0.38200
O802        O  0.63352419  0.45496335  0.43946044    -0.38200
O803        O  0.57294519  0.29559107  0.19307773    -0.38900
O804        O  0.51278901  0.32940214  0.21826778    -0.38900
C805        C  0.83867343  0.10286847  0.00357618    -0.11200
C806        C  0.85053240  0.15031222  0.99943625     0.05800
C807        C  0.86304148  0.16998291  0.06013469    -0.06500
C808        C  0.86283377  0.14365358  0.11939238    -0.07200
C809        C  0.85016061  0.09686446  0.12300113    -0.01800
C810        C  0.84125743  0.07600090  0.06233475     0.05000
N811        N  0.83326435  0.02720788  0.05862216     0.67500
H812        H  0.82013938  0.08986729  0.46296440     0.16400
H813        H  0.87340610  0.16062481  0.16305647     0.16100
N814        N  0.87601597  0.21724755  0.06493542     0.75200
O815        O  0.79582619  0.01376377  0.03402925    -0.38200
O816        O  0.86677576  0.00071988  0.05876296    -0.38200
O817        O  0.84620317  0.24427899  0.08159828    -0.38900
O818        O  0.91676015  0.22540736  0.08240590    -0.38900
C819        C  0.86765809  0.11380189  0.36780130    -0.11200
C820        C  0.83841057  0.15081075  0.36978356     0.05800
C821        C  0.81530579  0.16386709  0.30919768    -0.06500
C822        C  0.81769708  0.13630639  0.25451689    -0.07200
C823        C  0.84543460  0.09684866  0.25408036    -0.01800
C824        C  0.86871640  0.08513789  0.31575691     0.05000
N825        N  0.89036080  0.04236166  0.33316477     0.67500
H826        H  0.88979296  0.10517406  0.40983110     0.16400
H827        H  0.79914435  0.14768508  0.21033906     0.16100
N828        N  0.79419783  0.20791895  0.29843006     0.75200
O829        O  0.93286356  0.04281508  0.33590754    -0.38200
O830        O  0.87105947  0.01494473  0.37307543    -0.38200
O831        O  0.81866291  0.24344039  0.28713768    -0.38900
O832        O  0.75283168  0.20916321  0.28105258    -0.38900
C833        C  0.58416151  0.15773128  0.13099068    -0.11200
C834        C  0.62403762  0.13145767  0.13141406     0.05800
C835        C  0.63889670  0.11103943  0.19292740    -0.06500
C836        C  0.61253916  0.11261502  0.24700628    -0.07200
C837        C  0.57324479  0.13920233  0.24758624    -0.01800
C838        C  0.55792923  0.16014348  0.18621521     0.05000
N839        N  0.51375972  0.17931502  0.17582544     0.67500
H840        H  0.57130765  0.17430010  0.08581854     0.16400
H841        H  0.62438901  0.09336182  0.29074202     0.16100
N842        N  0.68293532  0.09261402  0.20501679     0.75200
O843        O  0.51029789  0.22266676  0.16446102    -0.38200
O844        O  0.48193229  0.15321829  0.15583483    -0.38200
O845        O  0.71437625  0.12054218  0.22083315    -0.38900
O846        O  0.68653852  0.05019827  0.22313923    -0.38900
C847        C  0.55600407  0.10995334  0.43289369    -0.11200
C848        C  0.57465978  0.12987293  0.37585312     0.05800
C849        C  0.61614776  0.15426901  0.38544750    -0.06500
C850        C  0.64065601  0.15043648  0.44520037    -0.07200
C851        C  0.62327419  0.12934561  0.50291098    -0.01800
C852        C  0.57817758  0.11072964  0.49509050     0.05000
N853        N  0.54933740  0.08624061  0.04638403     0.67500
H854        H  0.52177699  0.09603328  0.43033123     0.16400
H855        H  0.67303139  0.16761343  0.44476228     0.16100
N856        N  0.63333889  0.18585603  0.33652709     0.75200
O857        O  0.50660121  0.08601044  0.04369877    -0.38200
O858        O  0.56940679  0.06136598  0.09047995    -0.38200
O859        O  0.61419581  0.22428525  0.32351237    -0.38900
O860        O  0.67259232  0.18027692  0.31764968    -0.38900
C861        C  0.65397992  0.12753291  0.56869640    -0.01400
C862        C  0.84537506  0.17983280  0.93270575    -0.01400
C863        C  0.59690659  0.31950871  0.94515079    -0.01400
O864        O  0.76407221  0.18778896  0.94001900    -0.56800
C865        C  0.64098841  0.29175566  0.94478924     0.75900
O866        O  0.68256348  0.20710195  0.58368273    -0.57900
C867        C  0.80266791  0.20748687  0.93975046     0.75800
C868        C  0.76674727  0.33061153  0.54613197     0.78200
Cd869      Cd  0.72537402  0.24820241  0.49553081     1.37500
O870        O  0.67911392  0.31194268  0.93929332    -0.56800
O871        O  0.73664771  0.33273260  0.00111096    -0.55600
C872        C  0.68963364  0.16709242  0.56448623     0.78200
O873        O  0.77627547  0.29012917  0.56856444    -0.57900
O874        O  0.64132444  0.25042796  0.48403821    -0.56400
O875        O  0.76294546  0.19951550  0.41899006    -0.56400
O876        O  0.71998339  0.17778139  0.07688102    -0.55600
C877        C  0.84937555  0.06907156  0.68999875    -0.01400
C878        C  0.79399639  0.37398868  0.56259444    -0.01400
C879        C  0.90228006  0.38093849  0.81640713    -0.01400
O880        O  0.89493053  0.00013351  0.71747411    -0.56800
C881        C  0.55307433  0.46361891  0.69921774     0.75900
O882        O  0.02607019  0.05021720  0.82721364    -0.57900
C883        C  0.89299255  0.04124167  0.69326828     0.75800
C884        C  0.93180506  0.42493498  0.81384281     0.78200
Cd885      Cd  0.97943992  0.00291814  0.74524656     1.37500
O886        O  0.55456014  0.48590838  0.75016585    -0.56800
O887        O  0.91362078  0.46432933  0.81002057    -0.55600
C888        C  0.51746494  0.08909888  0.79664269     0.78200
O889        O  0.97392976  0.42498155  0.80579075    -0.57900
O890        O  0.51599658  0.46546123  0.66614101    -0.56400
O891        O  0.93087639  0.06015302  0.68019764    -0.56400
O892        O  0.49286850  0.08595748  0.74553763    -0.55600
C893        C  0.59172979  0.43145386  0.68718463    -0.01400
O894        O  0.67237643  0.45461629  0.70849564    -0.56800
C895        C  0.80533738  0.03945580  0.68472718     0.75900
O896        O  0.75691056  0.45051293  0.53666616    -0.57900
C897        C  0.63523647  0.45960239  0.67511388     0.75800
C898        C  0.67839399  0.08056230  0.57290830     0.78200
Cd899      Cd  0.72190155  0.99558110  0.62490274     1.37500
O900        O  0.80369675  0.99607619  0.67759092    -0.56800
O901        O  0.72124688  0.07711317  0.57737642    -0.55600
C902        C  0.76084973  0.41342444  0.57266530     0.78200
O903        O  0.65664067  0.04245345  0.57817753    -0.57900
O904        O  0.76759411  0.05892158  0.67691189    -0.56400
O905        O  0.63742468  0.48481636  0.62371783    -0.56400
O906        O  0.73891808  0.41234328  0.62359981    -0.55600
C907        C  0.54442363  0.13421765  0.80780829    -0.01400
O908        O  0.51461695  0.30578525  0.94910108    -0.56800
C909        C  0.88822292  0.20950127  0.92154872     0.75900
O910        O  0.92973797  0.30203964  0.79208505    -0.57900
C911        C  0.55341022  0.28850749  0.94400604     0.75800
C912        C  0.51259537  0.17460893  0.81561623     0.78200
Cd913      Cd  0.97258926  0.24964189  0.87608074     1.37500
O914        O  0.92480500  0.20562433  0.95645730    -0.56800
O915        O  0.52208495  0.21668355  0.79869232    -0.55600
C916        C  0.93207150  0.33699763  0.82764333     0.78200
O917        O  0.98789001  0.16783642  0.86032002    -0.57900
O918        O  0.89094821  0.23477307  0.87019448    -0.56400
O919        O  0.55272697  0.24793383  0.92330126    -0.56400
O920        O  0.95942968  0.33265318  0.87625759    -0.54000
C921        C  0.85096894  0.40787567  0.64053608    -0.11200
C922        C  0.82151964  0.37055312  0.62937488     0.05800
C923        C  0.81595408  0.33807595  0.68347644    -0.06500
C924        C  0.84349623  0.34130487  0.74069066    -0.07200
C925        C  0.87525322  0.37752516  0.74931837    -0.01800
C926        C  0.88149613  0.40822707  0.69382873     0.05000
N927        N  0.92421458  0.42956720  0.68146559     0.67500
H928        H  0.85530508  0.43360430  0.60148418     0.16400
H929        H  0.83803777  0.31681742  0.78100755     0.16100
N930        N  0.77937165  0.30541686  0.68641171     0.75200
O931        O  0.95800511  0.40359038  0.68699592    -0.38200
O932        O  0.92594288  0.46488343  0.64282457    -0.38200
O933        O  0.78780992  0.26256106  0.68767252    -0.38900
O934        O  0.74144859  0.31830357  0.70348018    -0.38900
C935        C  0.80335869  0.39192214  0.93802097    -0.11200
C936        C  0.82550698  0.38217797  0.99896360     0.05800
C937        C  0.87333803  0.37685245  0.99654630    -0.06500
C938        C  0.89532045  0.38521886  0.93838808    -0.07200
C939        C  0.87236746  0.38542793  0.87715357    -0.01800
C940        C  0.82441368  0.39043083  0.87840284     0.05000
N941        N  0.79530351  0.39433658  0.82141980     0.67500
H942        H  0.76779679  0.39867828  0.93614527     0.16400
H943        H  0.93185051  0.38627489  0.94187291     0.16100
N944        N  0.90079484  0.36333573  0.55337290     0.75200
O945        O  0.76139742  0.36723556  0.81655832    -0.38200
O946        O  0.79677748  0.43058004  0.78458208    -0.38200
O947        O  0.89638324  0.32237260  0.57678002    -0.38900
O948        O  0.93833761  0.38396784  0.56272672    -0.38900
C949        C  0.56541474  0.38557027  0.51058917    -0.11200
C950        C  0.59507319  0.34786763  0.51113183     0.05800
C951        C  0.62039316  0.33857244  0.57071963    -0.06500
C952        C  0.61836231  0.36748242  0.62235997    -0.07200
C953        C  0.58685391  0.40291624  0.62429787    -0.01800
C954        C  0.56204666  0.41388536  0.56392894     0.05000
N955        N  0.53966527  0.45694480  0.54943085     0.67500
H956        H  0.54605271  0.39510536  0.46624233     0.16400
H957        H  0.64000735  0.35916534  0.66504108     0.16100
N958        N  0.64199173  0.29578601  0.58688639     0.75200
O959        O  0.06813668  0.49056359  0.52248401    -0.38200
O960        O  0.49702941  0.45614077  0.54239425    -0.38200
O961        O  0.67886483  0.28283104  0.09972472    -0.38900
O962        O  0.61788539  0.26289992  0.60972322    -0.38900
C963        C  0.61810722  0.41754356  0.80843412    -0.11200
C964        C  0.59568962  0.39985274  0.75238510     0.05800
C965        C  0.57078472  0.35758439  0.76349977    -0.06500
C966        C  0.57255557  0.33382123  0.82441231    -0.07200
C967        C  0.59555165  0.35073251  0.87996777    -0.01800
C968        C  0.61981658  0.39333387  0.86971594     0.05000
N969        N  0.64915368  0.41172097  0.91901010     0.67500
H970        H  0.63429966  0.45152973  0.80586221     0.16400
H971        H  0.55498715  0.30070051  0.82656106     0.16100
N972        N  0.54173779  0.33738584  0.71527753     0.75200
O973        O  0.69079901  0.40470602  0.91625005    -0.38200
O974        O  0.63718883  0.44717345  0.94657629    -0.38200
O975        O  0.55861462  0.30826779  0.68072377    -0.38900
O976        O  0.50083897  0.33115420  0.72796258    -0.38900
C977        C  0.83451780  0.10631249  0.50498843    -0.11200
C978        C  0.84869950  0.15288872  0.49967547     0.05800
C979        C  0.86353319  0.17227302  0.56007335    -0.06500
C980        C  0.86334277  0.14559813  0.61965396    -0.07200
C981        C  0.85038059  0.09854494  0.62348728    -0.01800
C982        C  0.83957858  0.07864546  0.56280516     0.05000
N983        N  0.83340643  0.02984081  0.55726860     0.67500
H984        H  0.82667913  0.08555540  0.96092654     0.16400
H985        H  0.87474030  0.16222386  0.66327117     0.16100
N986        N  0.87773850  0.21952484  0.56454845     0.75200
O987        O  0.79999270  0.01633252  0.52301925    -0.38200
O988        O  0.86718048  0.00370020  0.56594722    -0.38200
O989        O  0.85147140  0.24552296  0.59140990    -0.38900
O990        O  0.91967375  0.22795987  0.57119363    -0.38900
C991        C  0.87259245  0.11615633  0.86604675    -0.11200
C992        C  0.84118040  0.15112445  0.86981434     0.05800
C993        C  0.81432634  0.16189370  0.81127519    -0.06500
C994        C  0.81781337  0.13481605  0.75604920    -0.07200
C995        C  0.84788918  0.09737234  0.75420483    -0.01800
C996        C  0.87313106  0.08699426  0.81444928     0.05000
N997        N  0.89695270  0.04516776  0.83017340     0.67500
H998        H  0.89609315  0.10882752  0.90701182     0.16400
H999        H  0.79764358  0.14444904  0.71257572     0.16100
N1000       N  0.78630455  0.20217452  0.80350633     0.75200
O1001       O  0.93894349  0.04709314  0.82528303    -0.38200
O1002       O  0.88248057  0.01860825  0.87531883    -0.38200
O1003       O  0.80286485  0.24157015  0.81576662    -0.38900
O1004       O  0.75026635  0.20057047  0.76855390    -0.38900
C1005       C  0.59077314  0.16381230  0.63295825    -0.11200
C1006       C  0.62751724  0.13320588  0.63252862     0.05800
C1007       C  0.63840332  0.10849596  0.69259720    -0.06500
C1008       C  0.61018410  0.10915810  0.74473921    -0.07200
C1009       C  0.57339680  0.13910309  0.74582476    -0.01800
C1010       C  0.56240643  0.16544714  0.68634452     0.05000
N1011       N  0.52036994  0.18945495  0.67503716     0.67500
H1012       H  0.58136211  0.18373466  0.58868215     0.16400
H1013       H  0.61902900  0.08709557  0.78734762     0.16100
N1014       N  0.68153319  0.08856757  0.70684507     0.75200
O1015       O  0.51989224  0.22852001  0.64430198    -0.38200
O1016       O  0.48349275  0.16713622  0.67971673    -0.38200
O1017       O  0.71288490  0.11548750  0.72593387    -0.38900
O1018       O  0.68333995  0.04605644  0.72500471    -0.38900
C1019       C  0.55126679  0.11269648  0.93171191    -0.11200
C1020       C  0.57247990  0.13023700  0.87501977     0.05800
C1021       C  0.61791421  0.14571017  0.88446616    -0.06500
C1022       C  0.64184671  0.13545547  0.94367367    -0.07200
C1023       C  0.62029102  0.12260933  0.00174627    -0.01800
C1024       C  0.57387384  0.10812106  0.99405796     0.05000
N1025       N  0.55076553  0.09907626  0.54887757     0.67500
H1026       H  0.51607094  0.10200023  0.92733969     0.16400
H1027       H  0.67769590  0.14372370  0.94617656     0.16100
N1028       N  0.63936560  0.17644832  0.83808435     0.75200
O1029       O  0.51400253  0.12011473  0.55324789    -0.38200
O1030       O  0.55986597  0.06478484  0.58744811    -0.38200
O1031       O  0.61887298  0.21192614  0.81408823    -0.38900
O1032       O  0.68152411  0.17452740  0.83317966    -0.38900
C1033       C  0.65133655  0.62781108  0.06310080    -0.01400
C1034       C  0.84702758  0.68356911  0.43293463    -0.01400
C1035       C  0.59510362  0.81933963  0.44543453    -0.01400
O1036       O  0.76463788  0.68859888  0.43744903    -0.56800
C1037       C  0.63781270  0.78928079  0.44530977     0.75900
O1038       O  0.71727073  0.66532723  0.01636383    -0.57900
C1039       C  0.80248784  0.71002833  0.43618283     0.75800
C1040       C  0.76314816  0.83390119  0.03969770     0.78200
Cd1041     Cd  0.72189574  0.74994995  0.99139491     1.37500
O1042       O  0.67543846  0.80543363  0.42635330    -0.56800
O1043       O  0.73437223  0.83121083  0.49834034    -0.55600
C1044       C  0.68662099  0.66733866  0.05651372     0.78200
O1045       O  0.76555332  0.79530731  0.07228431    -0.57900
O1046       O  0.63769059  0.75040873  0.98012169    -0.56400
O1047       O  0.80091407  0.75170407  0.95056779    -0.56400
O1048       O  0.72266938  0.67123421  0.56290037    -0.55600
C1049       C  0.85593317  0.57120477  0.19110548    -0.01400
C1050       C  0.79215445  0.87609326  0.05568378    -0.01400
C1051       C  0.89714663  0.87738112  0.31194108    -0.01400
O1052       O  0.89542236  0.50084349  0.23202865    -0.56800
C1053       C  0.55539078  0.96271468  0.19990886     0.75900
O1054       O  0.02096704  0.55057003  0.33378221    -0.57900
C1055       C  0.89691170  0.53969564  0.20108829     0.75800
C1056       C  0.92486317  0.92311296  0.30861493     0.78200
Cd1057     Cd  0.98064093  0.49891211  0.25479715     1.37500
O1058       O  0.55774023  0.98585904  0.25012154    -0.56800
O1059       O  0.90602121  0.95965626  0.28601532    -0.55600
C1060       C  0.52077349  0.58820627  0.29515855     0.78200
O1061       O  0.96777518  0.92624068  0.31709317    -0.57900
O1062       O  0.51779115  0.96409463  0.16808289    -0.56400
O1063       O  0.93606003  0.55344022  0.18436397    -0.56400
O1064       O  0.49581897  0.58393494  0.24461523    -0.55600
C1065       C  0.59369060  0.93019129  0.18719688    -0.01400
O1066       O  0.67462523  0.95401348  0.20799397    -0.56800
C1067       C  0.81050358  0.54513133  0.17371632     0.75900
O1068       O  0.73631710  0.94154175  0.02886030    -0.57900
C1069       C  0.63728873  0.95827949  0.17494323     0.75800
C1070       C  0.67707652  0.58148011  0.06894146     0.78200
Cd1071     Cd  0.72665299  0.49847677  0.12029941     1.37500
O1072       O  0.79107196  0.55203788  0.11845963    -0.56800
O1073       O  0.71987985  0.57981598  0.07284395    -0.55600
C1074       C  0.76354713  0.91922409  0.06826175     0.78200
O1075       O  0.65732908  0.54256549  0.07731114    -0.57900
O1076       O  0.78883303  0.51725915  0.21133731    -0.56400
O1077       O  0.63894815  0.98416811  0.12435952    -0.56400
O1078       O  0.76723814  0.93537380  0.12343741    -0.55600
C1079       C  0.54609348  0.63435869  0.30621108    -0.01400
O1080       O  0.51224470  0.80851288  0.44443651    -0.56800
C1081       C  0.88960477  0.71260655  0.42198844     0.75900
O1082       O  0.92406274  0.79912035  0.28608586    -0.57900
C1083       C  0.55072091  0.78975946  0.44360237     0.75800
C1084       C  0.51273222  0.67366749  0.31524488     0.78200
Cd1085     Cd  0.97233340  0.75159975  0.36751261     1.37500
O1086       O  0.92834440  0.69485604  0.43147565    -0.56800
O1087       O  0.51818663  0.71559653  0.29396837    -0.55600
C1088       C  0.93020623  0.83610616  0.31709878     0.78200
O1089       O  0.02559343  0.71583586  0.29311268    -0.57900
O1090       O  0.88909151  0.75181053  0.39227194    -0.56400
O1091       O  0.54961276  0.74765652  0.42872239    -0.56400
O1092       O  0.96379800  0.83570431  0.35726570    -0.54000
C1093       C  0.85917169  0.89331520  0.12910851    -0.11200
C1094       C  0.81968885  0.86714225  0.12185345     0.05800
C1095       C  0.80209087  0.84729410  0.18103302    -0.06500
C1096       C  0.82805428  0.84851838  0.24044549    -0.07200
C1097       C  0.86937022  0.87329438  0.24556673    -0.01800
C1098       C  0.88517539  0.89305401  0.18634509     0.05000
N1099       N  0.93020752  0.90846577  0.17955847     0.67500
H1100       H  0.87234425  0.91270870  0.08783956     0.16400
H1101       H  0.81413939  0.83261151  0.28377005     0.16100
N1102       N  0.75604034  0.83177835  0.18449016     0.75200
O1103       O  0.95800833  0.87791327  0.16769599    -0.38200
O1104       O  0.93651748  0.94957704  0.15721655    -0.38200
O1105       O  0.74766864  0.79021768  0.20323745    -0.38900
O1106       O  0.72531010  0.86147284  0.18596972    -0.38900
C1107       C  0.80446464  0.90471286  0.43877343    -0.11200
C1108       C  0.81962436  0.87966168  0.49659130     0.05800
C1109       C  0.85819120  0.85185011  0.48965251    -0.06500
C1110       C  0.88165354  0.85315671  0.43218128    -0.07200
C1111       C  0.86727026  0.87810451  0.37430754    -0.01800
C1112       C  0.82672503  0.90415050  0.37924064     0.05000
N1113       N  0.80376639  0.92625723  0.32370223     0.67500
H1114       H  0.77298371  0.92284450  0.43678294     0.16400
H1115       H  0.91110833  0.83188513  0.43444783     0.16100
N1116       N  0.87777793  0.82038465  0.03514644     0.75200
O1117       O  0.76801511  0.90705131  0.30162691    -0.38200
O1118       O  0.80755725  0.96975193  0.31478768    -0.38200
O1119       O  0.87663139  0.77928305  0.01746081    -0.38900
O1120       O  0.91050613  0.83112581  0.07291509    -0.38900
C1121       C  0.56410987  0.88643026  0.00984881    -0.11200
C1122       C  0.59204669  0.84737520  0.00939808     0.05800
C1123       C  0.61695261  0.83644900  0.06881165    -0.06500
C1124       C  0.61643581  0.86488677  0.12118511    -0.07200
C1125       C  0.58721304  0.90210146  0.12385127    -0.01800
C1126       C  0.56288140  0.91482036  0.06366288     0.05000
N1127       N  0.54360398  0.95954312  0.04988134     0.67500
H1128       H  0.54497273  0.89721522  0.96581858     0.16400
H1129       H  0.63775659  0.85517951  0.16356416     0.16100
N1130       N  0.63838344  0.79341631  0.08300230     0.75200
O1131       O  0.03333617  0.97059120  0.00267761    -0.38200
O1132       O  0.50110227  0.96193846  0.04212462    -0.38200
O1133       O  0.67623091  0.78565110  0.60310292    -0.38900
O1134       O  0.61423409  0.75937713  0.10228135    -0.38900
C1135       C  0.61923884  0.91657302  0.30873998    -0.11200
C1136       C  0.59770375  0.89847346  0.25231664     0.05800
C1137       C  0.57395581  0.85538799  0.26276850    -0.06500
C1138       C  0.57472059  0.83204351  0.32385969    -0.07200
C1139       C  0.59548890  0.85012761  0.38008795    -0.01800
C1140       C  0.61995515  0.89275621  0.37034527     0.05000
N1141       N  0.64758204  0.91205781  0.42099570     0.67500
H1142       H  0.63547180  0.95054397  0.30601419     0.16400
H1143       H  0.55811122  0.79832020  0.32600102     0.16100
N1144       N  0.54806897  0.83320976  0.21312305     0.75200
O1145       O  0.68824189  0.89977197  0.42807937    -0.38200
O1146       O  0.63713147  0.95081425  0.44123830    -0.38200
O1147       O  0.56522216  0.79829063  0.19028248    -0.38900
O1148       O  0.50567479  0.83342587  0.21563697    -0.38900
C1149       C  0.87279549  0.60982888  0.00829490    -0.11200
C1150       C  0.85204227  0.65360361  0.00382658     0.05800
C1151       C  0.84937285  0.67415396  0.06616740    -0.06500
C1152       C  0.86352863  0.64979928  0.12415037    -0.07200
C1153       C  0.86649920  0.60176662  0.12729050    -0.01800
C1154       C  0.87500463  0.58220317  0.06675916     0.05000
N1155       N  0.88567944  0.53429252  0.06258718     0.67500
H1156       H  0.80288328  0.60572186  0.46471006     0.16400
H1157       H  0.86552597  0.66832034  0.16788000     0.16100
N1158       N  0.82386715  0.71436429  0.07657348     0.75200
O1159       O  0.85429773  0.50629966  0.04678894    -0.38200
O1160       O  0.92582930  0.52418888  0.05178923    -0.38200
O1161       O  0.84049716  0.74299877  0.11574694    -0.38900
O1162       O  0.78170337  0.70836073  0.07551797    -0.38900
C1163       C  0.87010894  0.61403543  0.37255796    -0.11200
C1164       C  0.84377443  0.65333720  0.37160086     0.05800
C1165       C  0.82052632  0.66554059  0.31105350    -0.06500
C1166       C  0.82135882  0.63634825  0.25775580    -0.07200
C1167       C  0.85043161  0.59786749  0.25702105    -0.01800
C1168       C  0.87242596  0.58598712  0.31968334     0.05000
N1169       N  0.89225960  0.54253772  0.33753383     0.67500
H1170       H  0.88913633  0.60357252  0.41684984     0.16400
H1171       H  0.80163806  0.64659751  0.21418477     0.16100
N1172       N  0.80093969  0.71025161  0.29911236     0.75200
O1173       O  0.93442801  0.54234917  0.34897606    -0.38200
O1174       O  0.86866648  0.51364280  0.36988027    -0.38200
O1175       O  0.82630683  0.74405457  0.28257059    -0.38900
O1176       O  0.75894630  0.71310288  0.28672670    -0.38900
C1177       C  0.58638116  0.66060983  0.12757681    -0.11200
C1178       C  0.62654835  0.63482240  0.12785105     0.05800
C1179       C  0.64188186  0.61453852  0.18927405    -0.06500
C1180       C  0.61503636  0.61491981  0.24327855    -0.07200
C1181       C  0.57509262  0.64079087  0.24402996    -0.01800
C1182       C  0.56004169  0.66251652  0.18285680     0.05000
N1183       N  0.51599836  0.68216163  0.17262527     0.67500
H1184       H  0.57341412  0.67724351  0.08249042     0.16400
H1185       H  0.62665711  0.59496020  0.28649054     0.16100
N1186       N  0.68593092  0.59527177  0.19987274     0.75200
O1187       O  0.51281128  0.72487393  0.15614661    -0.38200
O1188       O  0.48287635  0.65561179  0.15918352    -0.38200
O1189       O  0.71914418  0.62256126  0.20904346    -0.38900
O1190       O  0.68970381  0.55296345  0.21842486    -0.38900
C1191       C  0.55320289  0.61163865  0.42971934    -0.11200
C1192       C  0.57401609  0.63085835  0.37356450     0.05800
C1193       C  0.61818400  0.64950044  0.38415569    -0.06500
C1194       C  0.64211590  0.64031685  0.44369430    -0.07200
C1195       C  0.62111883  0.62360900  0.50106555    -0.01800
C1196       C  0.57537543  0.60748882  0.49218708     0.05000
N1197       N  0.55142804  0.58708258  0.04507273     0.67500
H1198       H  0.51846906  0.59944345  0.42508497     0.16400
H1199       H  0.67732712  0.65105135  0.44615777     0.16100
N1200       N  0.63816800  0.68166361  0.33803597     0.75200
O1201       O  0.50896981  0.59063539  0.04583339    -0.38200
O1202       O  0.57146883  0.56340218  0.09035037    -0.38200
O1203       O  0.61647988  0.71688907  0.31582510    -0.38900
O1204       O  0.67984118  0.67964740  0.32864862    -0.38900
C1205       C  0.64986422  0.62567093  0.56799106    -0.01400
C1206       C  0.84325871  0.68081971  0.93495564    -0.01400
C1207       C  0.59267759  0.81882090  0.94633116    -0.01400
O1208       O  0.76178263  0.68945733  0.93716447    -0.56800
C1209       C  0.63480351  0.78795702  0.94637072     0.75900
O1210       O  0.66090774  0.70690802  0.54135701    -0.57900
C1211       C  0.80050783  0.70897609  0.93949812     0.75800
C1212       C  0.76167850  0.83046399  0.54677890     0.78200
Cd1213     Cd  0.72340605  0.74835729  0.49284357     1.37500
O1214       O  0.67049197  0.80006832  0.91766417    -0.56800
O1215       O  0.73845987  0.83395136  0.98837644    -0.55600
C1216       C  0.67966361  0.66977813  0.56112907     0.78200
O1217       O  0.76661047  0.79109644  0.57719342    -0.57900
O1218       O  0.63921608  0.74832503  0.47024885    -0.56400
O1219       O  0.80076025  0.75300257  0.44407400    -0.56400
O1220       O  0.68297252  0.70619212  0.08177129    -0.55600
C1221       C  0.84036209  0.57081848  0.69131809    -0.01400
C1222       C  0.79023299  0.87361171  0.55960363    -0.01400
C1223       C  0.90073076  0.88056794  0.81184306    -0.01400
O1224       O  0.89094029  0.51808327  0.75514388    -0.56800
C1225       C  0.55660135  0.96063097  0.69912670     0.75900
O1226       O  0.01365259  0.55321925  0.83568140    -0.57900
C1227       C  0.88509748  0.54456804  0.70492475     0.75800
C1228       C  0.92812834  0.92621537  0.80691771     0.78200
Cd1229     Cd  0.97321388  0.50674001  0.75280407     1.37500
O1230       O  0.55816582  0.98330946  0.74962324    -0.56800
O1231       O  0.90983359  0.96194575  0.78040839    -0.55600
C1232       C  0.51161018  0.58912692  0.79626326     0.78200
O1233       O  0.97057655  0.92981779  0.81874142    -0.57900
O1234       O  0.51950908  0.96264251  0.66582637    -0.56400
O1235       O  0.91974783  0.55039450  0.67059821    -0.56400
O1236       O  0.48525353  0.58631496  0.74687442    -0.55600
C1237       C  0.59545030  0.92841159  0.68747886    -0.01400
O1238       O  0.64078588  0.98382589  0.62679669    -0.56800
C1239       C  0.79901564  0.53905120  0.68407916     0.75900
O1240       O  0.74366247  0.91715937  0.62619770    -0.57900
C1241       C  0.63904978  0.95680341  0.67645118     0.75800
C1242       C  0.67868868  0.58140347  0.57343658     0.78200
Cd1243     Cd  0.71910914  0.49439298  0.62362247     1.37500
O1244       O  0.79995849  0.49573644  0.67701349    -0.56800
O1245       O  0.71667166  0.58025247  0.60408474    -0.55600
C1246       C  0.75873333  0.91433818  0.57095625     0.78200
O1247       O  0.66481642  0.54269518  0.55192170    -0.57900
O1248       O  0.76064764  0.55698301  0.67606938    -0.56400
O1249       O  0.67636138  0.95166567  0.70949735    -0.56400
O1250       O  0.74912113  0.94868850  0.53182389    -0.55600
C1251       C  0.53856080  0.63424027  0.80641608    -0.01400
O1252       O  0.50995165  0.80729650  0.94776828    -0.56800
C1253       C  0.88626584  0.71085844  0.92398446     0.75900
O1254       O  0.92322640  0.79954955  0.79510742    -0.57900
C1255       C  0.54848486  0.78916155  0.94398334     0.75800
C1256       C  0.50649632  0.67403269  0.81650191     0.78200
Cd1257     Cd  0.97055258  0.75204638  0.87773457     1.37500
O1258       O  0.88924935  0.73734659  0.87404942    -0.56800
O1259       O  0.50990195  0.71503033  0.79069864    -0.55600
C1260       C  0.93295059  0.83841581  0.81933438     0.78200
O1261       O  0.98114592  0.67024716  0.86127798    -0.57900
O1262       O  0.92231776  0.70840305  0.96043700    -0.56400
O1263       O  0.54749209  0.74807321  0.92504895    -0.56400
O1264       O  0.96736142  0.83819280  0.85817335    -0.54000
C1265       C  0.86165778  0.89183637  0.62875068    -0.11200
C1266       C  0.81965416  0.86843033  0.62527651     0.05800
C1267       C  0.80372194  0.84910781  0.68602051    -0.06500
C1268       C  0.83077631  0.85193464  0.74388487    -0.07200
C1269       C  0.87283412  0.87521580  0.74609124    -0.01800
C1270       C  0.88925041  0.89183100  0.68545747     0.05000
N1271       N  0.93508977  0.90680350  0.67927867     0.67500
H1272       H  0.87468609  0.90924747  0.58586966     0.16400
H1273       H  0.81771481  0.83677452  0.78830572     0.16100
N1274       N  0.75911227  0.82943440  0.69244944     0.75200
O1275       O  0.96600733  0.87753288  0.68976093    -0.38200
O1276       O  0.94392789  0.94548929  0.65069420    -0.38200
O1277       O  0.75484097  0.78573812  0.69840420    -0.38900
O1278       O  0.72944565  0.85345039  0.71624994    -0.38900
C1279       C  0.80997477  0.91116369  0.93911110    -0.11200
C1280       C  0.82350052  0.88321280  0.99532477     0.05800
C1281       C  0.86182218  0.85489163  0.98780215    -0.06500
C1282       C  0.88457728  0.85642926  0.93032237    -0.07200
C1283       C  0.87111098  0.88269836  0.87367029    -0.01800
C1284       C  0.83220820  0.91095608  0.87947992     0.05000
N1285       N  0.81086212  0.93563357  0.82457461     0.67500
H1286       H  0.77994222  0.93174242  0.93890171     0.16400
H1287       H  0.91303872  0.83379112  0.93198850     0.16100
N1288       N  0.87314941  0.81882622  0.53951055     0.75200
O1289       O  0.77584485  0.91765111  0.79848668    -0.38200
O1290       O  0.81493871  0.97929826  0.81942366    -0.38200
O1291       O  0.85043180  0.78181167  0.54811133    -0.38900
O1292       O  0.91358520  0.82062309  0.56177706    -0.38900
C1293       C  0.56849191  0.88781011  0.50882366    -0.11200
C1294       C  0.59485764  0.84761896  0.50852064     0.05800
C1295       C  0.61837967  0.83468008  0.56839038    -0.06500
C1296       C  0.61841195  0.86277250  0.62137523    -0.07200
C1297       C  0.59003693  0.90086103  0.62385157    -0.01800
C1298       C  0.56766371  0.91560878  0.56309542     0.05000
N1299       N  0.55128817  0.96169138  0.54984242     0.67500
H1300       H  0.55034569  0.89982559  0.46454397     0.16400
H1301       H  0.63871942  0.85184116  0.66427918     0.16100
N1302       N  0.63557245  0.78945986  0.58255871     0.75200
O1303       O  0.01314313  0.96317217  0.54404996    -0.38200
O1304       O  0.50937205  0.96688353  0.53793813    -0.38200
O1305       O  0.67976771  0.79416917  0.10001833    -0.38900
O1306       O  0.60761558  0.75789591  0.59885082    -0.38900
C1307       C  0.62061640  0.91409456  0.80901474    -0.11200
C1308       C  0.59860768  0.89650743  0.75245783     0.05800
C1309       C  0.57248807  0.85487702  0.76343287    -0.06500
C1310       C  0.57189771  0.83233027  0.82493827    -0.07200
C1311       C  0.59347900  0.84968754  0.88107647    -0.01800
C1312       C  0.61996948  0.89084728  0.87093102     0.05000
N1313       N  0.64884274  0.90870921  0.92127996     0.67500
H1314       H  0.63797714  0.94745783  0.80651141     0.16400
H1315       H  0.55352371  0.79963487  0.82712409     0.16100
N1316       N  0.54474770  0.83367572  0.71458081     0.75200
O1317       O  0.69060132  0.90105693  0.92035363    -0.38200
O1318       O  0.63643302  0.94380476  0.94935599    -0.38200
O1319       O  0.56215080  0.80195700  0.68503951    -0.38900
O1320       O  0.50329850  0.82888831  0.72481341    -0.38900
C1321       C  0.82279929  0.61600442  0.50696509    -0.11200
C1322       C  0.85159478  0.65468557  0.50063345     0.05800
C1323       C  0.87868944  0.66474411  0.55875069    -0.06500
C1324       C  0.87382193  0.63743780  0.61726456    -0.07200
C1325       C  0.84371130  0.59950262  0.62334143    -0.01800
C1326       C  0.82153248  0.58686761  0.56327279     0.05000
N1327       N  0.80412712  0.54129603  0.55302345     0.67500
H1328       H  0.88561186  0.59530158  0.96600809     0.16400
H1329       H  0.89479077  0.64592885  0.65934769     0.16100
N1330       N  0.91217101  0.70118283  0.56265320     0.75200
O1331       O  0.83217987  0.50879721  0.55330840    -0.38200
O1332       O  0.76728737  0.53748925  0.52022376    -0.38200
O1333       O  0.90893802  0.72902087  0.60713579    -0.38900
O1334       O  0.95168380  0.69187632  0.54778980    -0.38900
C1335       C  0.82713500  0.60368629  0.87283446    -0.11200
C1336       C  0.83445290  0.65213694  0.87113719     0.05800
C1337       C  0.82922983  0.67416771  0.80714433    -0.06500
C1338       C  0.83042891  0.64828996  0.75092802    -0.07200
C1339       C  0.83285161  0.59947196  0.75364218    -0.01800
C1340       C  0.82611778  0.57764386  0.81666116     0.05000
N1341       N  0.81252436  0.52985734  0.82497891     0.67500
H1342       H  0.81882758  0.58537050  0.91762472     0.16400
H1343       H  0.82642021  0.66719154  0.70467843     0.16100
N1344       N  0.81733351  0.72209675  0.79706370     0.75200
O1345       O  0.83643953  0.50321366  0.86247570    -0.38200
O1346       O  0.77098476  0.51998775  0.81648818    -0.38200
O1347       O  0.83912198  0.74765272  0.75767960    -0.38900
O1348       O  0.77800171  0.73393550  0.80964356    -0.38900
C1349       C  0.58216403  0.65802963  0.62852049    -0.11200
C1350       C  0.62221286  0.63144367  0.63115682     0.05800
C1351       C  0.63465234  0.61079615  0.69371960    -0.06500
C1352       C  0.60630800  0.61210791  0.74556558    -0.07200
C1353       C  0.56728066  0.63896119  0.74407362    -0.01800
C1354       C  0.55407571  0.66055746  0.68219320     0.05000
N1355       N  0.51048449  0.68080549  0.66980037     0.67500
H1356       H  0.57077680  0.67493523  0.58282037     0.16400
H1357       H  0.61669266  0.59265106  0.78984706     0.16100
N1358       N  0.67813372  0.59244364  0.71019154     0.75200
O1359       O  0.50805953  0.72399046  0.65613547    -0.38200
O1360       O  0.47774510  0.65497951  0.65221549    -0.38200
O1361       O  0.70940793  0.62065245  0.72602193    -0.38900
O1362       O  0.68065218  0.55059524  0.73161964    -0.38900
C1363       C  0.55122506  0.60948915  0.92948083    -0.11200
C1364       C  0.56827140  0.63136105  0.87224295     0.05800
C1365       C  0.60939515  0.65664740  0.88104964    -0.06500
C1366       C  0.63405136  0.65295104  0.94040065    -0.07200
C1367       C  0.61946559  0.62874046  0.99796527    -0.01800
C1368       C  0.57522674  0.60739432  0.99096392     0.05000
N1369       N  0.55060283  0.58570703  0.54418020     0.67500
H1370       H  0.51732282  0.59462195  0.92719812     0.16400
H1371       H  0.66529091  0.67337449  0.93922210     0.16100
N1372       N  0.62639003  0.68829643  0.83141166     0.75200
O1373       O  0.50796961  0.58794413  0.54293149    -0.38200
O1374       O  0.57025834  0.55993441  0.58764552    -0.38200
O1375       O  0.60251093  0.72168787  0.80846770    -0.38900
O1376       O  0.66789273  0.68832118  0.81967158    -0.38900
loop_ 
_geom_bond_atom_site_label_1 
_geom_bond_atom_site_label_2 
_geom_bond_distance 
_geom_bond_site_symmetry_2 
_ccdc_geom_bond_type 
C1           C12   1.537       .  S
C1           C38   1.535       .  S
C1          C146   1.595       .  S
C1          C335   1.594   1_554  S
C2            C7   1.519       .  S
C2           C49   1.536       .  S
C2          C132   1.588       .  S
C2          C290   1.595       .  S
C3            C5   1.544       .  S
C3           C51   1.534       .  S
C3          C107   1.579       .  S
C3          C262   1.584       .  S
O4            C7   1.274       .  A
O4         Cd181   2.464       .  S
C5           O10   1.271       .  A
C5          O186   1.258       .  A
O6           C12   1.263       .  A
O6           Cd9   2.492   1_554  S
C7          O187   1.257       .  A
C8           C18   1.518       .  S
C8           O13   1.266       .  A
C8          O183   1.261       .  A
Cd9          O15   2.481       .  S
Cd9          O14   2.533       .  S
Cd9          O13   2.444   1_556  S
Cd9         O176   2.448       .  S
Cd9         O188   2.517   1_556  S
Cd9         O182   2.507       .  S
Cd9         O183   2.449   1_556  S
O10        Cd181   2.517       .  S
O11         C180   1.261       .  A
O11        Cd181   2.426       .  S
C12         O188   1.256       .  A
O14         C177   1.264       .  A
O15         C179   1.275       .  A
O16         C184   1.265       .  A
O16        Cd181   2.440       .  S
C17          C23   1.524       .  S
C17          C35   1.549       .  S
C17         C121   1.579       .  S
C17         C135   1.612       .  S
C18          C42   1.541       .  S
C18          C62   1.579       .  S
C18         C248   1.603   1_554  S
C19          C24   1.528       .  S
C19          C56   1.544       .  S
C19          C65   1.591       .  S
C19          C79   1.611       .  S
O20          C23   1.258       .  A
O20         Cd25   2.510       .  S
C21          C33   1.531       .  S
C21          O30   1.262       .  A
C21          O26   1.262       .  A
O22         C716   1.277       .  A
O22         Cd25   2.536       .  S
C23          O31   1.275       .  A
C24          O29   1.263       .  A
C24          O27   1.258       .  A
Cd25         O31   2.496       .  S
Cd25        O720   2.428       .  S
Cd25       O1062   2.494   1_545  S
Cd25       O1058   2.433   1_545  S
Cd25        O373   2.459   1_545  S
Cd25        O371   2.495   1_545  S
O26       Cd1057   2.458   1_455  S
O27        Cd369   2.481       .  S
C28          C47   1.531       .  S
C28          O32   1.258   1_455  A
C28         O710   1.277       .  A
O29        Cd369   2.487       .  S
O30       Cd1057   2.524   1_455  S
O32        Cd713   2.436       .  S
C33          C37   1.535       .  S
C33          C93   1.584       .  S
C33         C104   1.586       .  S
O34          C37   1.279       .  A
O34        Cd383   2.531       .  S
C35          O44   1.256       .  A
C35          O40   1.267   1_545  A
O36          C42   1.274       .  A
O36        Cd383   2.557       .  S
C37          O45   1.259       .  A
C38          O43   1.259       .  A
C38          O41   1.270       .  A
Cd39         O44   2.512   1_565  S
Cd39         O40   2.620       .  S
Cd39         O43   2.443   1_565  S
Cd39         O41   2.485   1_565  S
Cd39        O378   2.540       .  S
Cd39        O380   2.571       .  S
Cd39        O390   2.389       .  S
Cd39        O389   2.441       .  S
C42          O46   1.264       .  A
O45        Cd383   2.435       .  S
O46        Cd383   2.412       .  S
C47          C52   1.538       .  S
C47         C149   1.584       .  S
C47         C160   1.582       .  S
O48          C51   1.261       .  A
O48        Cd741   2.474   1_455  S
C49          O58   1.276       .  A
C49          O54   1.261       .  A
O50          C56   1.262       .  A
O50         Cd53   2.377       .  S
C51          O59   1.262       .  A
C52          O55   1.275       .  A
C52         O745   1.265   1_455  A
Cd53         O60   2.550       .  S
Cd53         O58   2.532       .  S
Cd53         O54   2.444       .  S
Cd53         O57   2.430       .  S
Cd53        O736   2.519       .  S
Cd53        O747   2.541       .  S
Cd53        O743   2.539       .  S
O55        Cd741   2.548   1_455  S
C56          O60   1.276       .  A
O57         C740   1.265       .  A
O59        Cd741   2.533   1_455  S
C61          C62   1.396       .  A
C61          C66   1.401       .  A
C61          H68   1.081       .  S
C62          C63   1.438       .  A
C63          C64   1.417       .  A
C63          N70   1.427       .  S
C64          C65   1.408       .  A
C64          H69   1.082       .  S
C65          C66   1.438       .  A
C66          N67   1.423       .  S
N67          O71   1.256       .  A
N67          O72   1.257       .  A
N70          O74   1.261       .  A
N70          O73   1.261       .  A
C75          C76   1.421       .  A
C75          C80   1.433       .  A
C75          H82   1.080       .  S
C76         C190   1.607       .  S
C76          C77   1.422       .  A
C77          C78   1.406       .  A
C77         N256   1.418       .  S
C78          C79   1.410       .  A
C78          H83   1.076       .  S
C79          C80   1.435       .  A
C80          N81   1.426       .  S
N81          O85   1.262       .  A
N81          O86   1.259       .  A
N84         C249   1.417   1_554  S
N84          O88   1.257       .  A
N84          O87   1.256       .  A
C89          C90   1.402       .  A
C89          C94   1.417       .  A
C89          H96   1.084   1_554  S
C90         C175   1.575   1_554  S
C90          C91   1.421       .  A
C91          C92   1.398       .  A
C91          N98   1.414       .  S
C92          C93   1.398       .  A
C92          H97   1.084       .  S
C93          C94   1.445       .  A
C94          N95   1.423       .  S
N95         O787   1.260       .  A
N95         O100   1.262   1_455  A
N98         O102   1.262       .  A
N98         O273   1.263       .  A
O99         N783   1.260       .  A
O101        N270   1.259       .  A
C103        C104   1.426       .  A
C103        C108   1.413       .  A
C103        H110   1.082       .  S
C104        C105   1.423       .  A
C105        C106   1.403       .  A
C105        N112   1.428       .  S
C106        C107   1.418       .  A
C106        H111   1.078       .  S
C107        C108   1.416       .  A
C108        N109   1.428       .  S
N109        O113   1.259       .  A
N109        O114   1.261       .  A
N112        O116   1.259       .  A
N112        O115   1.261       .  A
C117        C118   1.404       .  A
C117        C122   1.408       .  A
C117        H296   1.079   1_554  S
C118        C174   1.599   1_554  S
C118        C119   1.446       .  A
C119        C120   1.413       .  A
C119        N126   1.417       .  S
C120        C121   1.391       .  A
C120        H125   1.081       .  S
C121        C122   1.428       .  A
C122        N123   1.419       .  S
N123        O127   1.254       .  A
N123        O128   1.260       .  A
H124        C289   1.078       .  S
N126        O130   1.263       .  A
N126        O129   1.261       .  A
C131        C132   1.385       .  A
C131        C136   1.394       .  A
C131        H138   1.085       .  S
C132        C133   1.442       .  A
C133        C134   1.431       .  A
C133        N140   1.433       .  S
C134        C135   1.414       .  A
C134        H139   1.081       .  S
C135        C136   1.444       .  A
C136        N137   1.414       .  S
N137        O141   1.257       .  A
N137        O142   1.262       .  A
N140        O144   1.261       .  A
N140        O143   1.261       .  A
C145        C146   1.416       .  A
C145        C150   1.427       .  A
C145        H152   1.082       .  S
C146        C147   1.427       .  A
C147        C148   1.403       .  A
C147        N154   1.418       .  S
C148        C149   1.403       .  A
C148        H153   1.083       .  S
C149        C150   1.436       .  A
C150        N151   1.430       .  S
N151        O155   1.261       .  A
N151        O156   1.261   1_455  A
N154        O158   1.261       .  A
N154        O157   1.260       .  A
C159        C160   1.420       .  A
C159        C164   1.417       .  A
C159        H166   1.080       .  S
C160        C161   1.413       .  A
C161        C162   1.405       .  A
C161        N168   1.428       .  S
C162        C163   1.426       .  A
C162        H167   1.071       .  S
C163        C173   1.598       .  S
C163        C164   1.422       .  A
C164        N337   1.424       .  S
N165        C336   1.431   1_554  S
N165        O169   1.262       .  A
N165        O170   1.257       .  A
N168        O172   1.259       .  A
N168        O171   1.258       .  A
C173        C184   1.533       .  S
C173        C210   1.539       .  S
C173        C318   1.589       .  S
C174        C179   1.523       .  S
C174        C221   1.527       .  S
C174        C304   1.588       .  S
C175        C177   1.544       .  S
C175        C223   1.544       .  S
C175        C279   1.579       .  S
O176        C179   1.258       .  A
C177        O182   1.264       .  A
O178        C184   1.270       .  A
O178       Cd181   2.503       .  S
C180        C190   1.522       .  S
C180        O185   1.271       .  A
Cd181       O187   2.441       .  S
Cd181       O186   2.499       .  S
Cd181       O185   2.455       .  S
C189        C195   1.516       .  S
C189        C207   1.554       .  S
C189        C293   1.584       .  S
C189        C307   1.621       .  S
C190        C214   1.545       .  S
C190        C234   1.589       .  S
C191        C196   1.519       .  S
C191        C228   1.548       .  S
C191        C237   1.588       .  S
C191        C251   1.601       .  S
O192        C195   1.257       .  A
O192       Cd197   2.485       .  S
C193        C205   1.546       .  S
C193        O202   1.265       .  A
C193        O198   1.269       .  A
O194        C888   1.277       .  A
O194       Cd197   2.540       .  S
C195        O203   1.278       .  A
C196        O201   1.268       .  A
C196        O199   1.250       .  A
Cd197       O892   2.413       .  S
Cd197       O203   2.490       .  S
Cd197      O1234   2.515   1_545  S
Cd197      O1230   2.423   1_545  S
Cd197       O545   2.554   1_545  S
Cd197       O543   2.444   1_545  S
O198      Cd1229   2.573   1_455  S
O199       Cd541   2.432       .  S
C200        C219   1.532       .  S
C200        O882   1.276       .  A
C200        O204   1.255   1_455  A
O201       Cd541   2.534       .  S
O202      Cd1229   2.465   1_455  S
O204       Cd885   2.425       .  S
C205        C209   1.541       .  S
C205        C265   1.582       .  S
C205        C276   1.589       .  S
O206        C209   1.278       .  A
O206       Cd555   2.556       .  S
C207        O216   1.264       .  A
C207        O212   1.261   1_545  A
O208        C214   1.275       .  A
O208       Cd555   2.606       .  S
C209        O217   1.259       .  A
C210        O215   1.255       .  A
C210        O213   1.269       .  A
Cd211       O550   2.560       .  S
Cd211       O552   2.571       .  S
Cd211       O562   2.408       .  S
Cd211       O561   2.484       .  S
Cd211       O216   2.615   1_565  S
Cd211       O212   2.527       .  S
Cd211       O215   2.467   1_565  S
Cd211       O213   2.530   1_565  S
C214        O218   1.257       .  A
O217       Cd555   2.447       .  S
O218       Cd555   2.406       .  S
C219        C224   1.539       .  S
C219        C321   1.582       .  S
C219        C332   1.587       .  S
O220        C223   1.267       .  A
O220       Cd913   2.501   1_455  S
C221        O230   1.274       .  A
C221        O226   1.257       .  A
O222        C228   1.265       .  A
O222       Cd225   2.419       .  S
C223        O231   1.263       .  A
C224        O917   1.266   1_455  A
C224        O227   1.276       .  A
Cd225       O908   2.529       .  S
Cd225       O232   2.573       .  S
Cd225       O919   2.543       .  S
Cd225       O230   2.523       .  S
Cd225       O226   2.431       .  S
Cd225       O229   2.452       .  S
Cd225       O915   2.512       .  S
O227       Cd913   2.555   1_455  S
C228        O232   1.270       .  A
O229        C912   1.263       .  A
O231       Cd913   2.524   1_455  S
C233        C234   1.393       .  A
C233        C238   1.397       .  A
C233        H240   1.079       .  S
C234        C235   1.447       .  A
C235        C236   1.422       .  A
C235        N242   1.433       .  S
C236        C237   1.407       .  A
C236        H241   1.082       .  S
C237        C238   1.435       .  A
C238        N239   1.423       .  S
N239        O243   1.257       .  A
N239        O244   1.257       .  A
N242        O246   1.261       .  A
N242        O245   1.261       .  A
C247        C248   1.419       .  A
C247        C252   1.430       .  A
C247        H254   1.075       .  S
C248        C249   1.426       .  A
C249        C250   1.404       .  A
C250        C251   1.405       .  A
C250        H255   1.076       .  S
C251        C252   1.432       .  A
C252        N253   1.427       .  S
N253        O257   1.261       .  A
N253        O258   1.259       .  A
N256        O260   1.260       .  A
N256        O259   1.256       .  A
C261        C262   1.411       .  A
C261        C266   1.422       .  A
C261        H268   1.084       .  S
C262        C263   1.429       .  A
C263        C264   1.397       .  A
C263        N270   1.418       .  S
C264        C265   1.399       .  A
C264        H269   1.083       .  S
C265        C266   1.438       .  A
C266        N267   1.426       .  S
N267        O959   1.261       .  A
N267        O272   1.262       .  A
N270        O274   1.262       .  A
O271        N955   1.260       .  A
C275        C276   1.423       .  A
C275        C280   1.416       .  A
C275        H282   1.082       .  S
C276        C277   1.427       .  A
C277        C278   1.400       .  A
C277        N284   1.428       .  S
C278        C279   1.414       .  A
C278        H283   1.077       .  S
C279        C280   1.421       .  A
C280        N281   1.428       .  S
N281        O285   1.259       .  A
N281        O286   1.262       .  A
N284        O288   1.258       .  A
N284        O287   1.258       .  A
C289        C290   1.404       .  A
C289        C294   1.409       .  A
C290        C291   1.444       .  A
C291        C292   1.408       .  A
C291        N298   1.419       .  S
C292        C293   1.392       .  A
C292        H297   1.080       .  S
C293        C294   1.438       .  A
C294        N295   1.429       .  S
N295        O299   1.260       .  A
N295        O300   1.260       .  A
N298        O302   1.263       .  A
N298        O301   1.261       .  A
C303        C304   1.385       .  A
C303        C308   1.399       .  A
C303        H310   1.085       .  S
C304        C305   1.436       .  A
C305        C306   1.429       .  A
C305        N312   1.426       .  S
C306        C307   1.416       .  A
C306        H311   1.081       .  S
C307        C308   1.451       .  A
C308        N309   1.416       .  S
N309        O313   1.257       .  A
N309        O314   1.262       .  A
N312        O316   1.259       .  A
N312        O315   1.261       .  A
C317        C318   1.414       .  A
C317        C322   1.428       .  A
C317        H324   1.083       .  S
C318        C319   1.425       .  A
C319        C320   1.397       .  A
C319        N326   1.414       .  S
C320        C321   1.398       .  A
C320        H325   1.083       .  S
C321        C322   1.441       .  A
C322        N323   1.431       .  S
N323        O327   1.260       .  A
N323        O328   1.261   1_455  A
N326        O330   1.262       .  A
N326        O329   1.261       .  A
C331        C332   1.421       .  A
C331        C336   1.417       .  A
C331        H338   1.081       .  S
C332        C333   1.417       .  A
C333        C334   1.408       .  A
C333        N340   1.432       .  S
C334        C335   1.424       .  A
C334        H339   1.072       .  S
C335        C336   1.426       .  A
N337        O341   1.262       .  A
N337        O342   1.259       .  A
N340        O344   1.260       .  A
N340        O343   1.262       .  A
C345        C356   1.534       .  S
C345        C382   1.544       .  S
C345        C490   1.587       .  S
C345        C679   1.598   1_554  S
C346        C351   1.514       .  S
C346        C393   1.536       .  S
C346        C634   1.595       .  S
C346        C476   1.584       .  S
C347        C349   1.528       .  S
C347        C395   1.553       .  S
C347        C606   1.564       .  S
C347        C451   1.564       .  S
O348        C351   1.263       .  A
O348       Cd525   2.463       .  S
C349        O530   1.264       .  A
C349        O354   1.263       .  A
O350        C356   1.265       .  A
O350       Cd353   2.493   1_554  S
C351        O531   1.255       .  A
C352        C362   1.521       .  S
C352        O357   1.271       .  A
C352        O527   1.262   1_554  A
Cd353       O520   2.458       .  S
Cd353       O532   2.432   1_556  S
Cd353       O359   2.378       .  S
Cd353       O358   2.491       .  S
Cd353       O526   2.462       .  S
Cd353       O357   2.446   1_556  S
Cd353       O527   2.437       .  S
O354       Cd525   2.450       .  S
O355        C524   1.262       .  A
O355       Cd525   2.433       .  S
C356        O532   1.264       .  A
O358        C521   1.261       .  A
O359        C523   1.256       .  A
O360        C528   1.279       .  A
O360       Cd525   2.639       .  S
C361        C367   1.528       .  S
C361        C379   1.545       .  S
C361        C465   1.579       .  S
C361        C479   1.616       .  S
C362        C386   1.537       .  S
C362        C406   1.583       .  S
C362        C592   1.608   1_554  S
C363        C368   1.530       .  S
C363        C400   1.550       .  S
C363        C409   1.586       .  S
C363        C423   1.604       .  S
O364        C367   1.258       .  A
O364       Cd369   2.515       .  S
C365        C377   1.529       .  S
C365        O374   1.252       .  A
C365        O370   1.263       .  A
O366       C1060   1.278       .  A
O366       Cd369   2.508       .  S
C367        O375   1.275       .  A
C368        O373   1.264       .  A
C368        O371   1.263       .  A
Cd369      O1064   2.428       .  S
Cd369       O375   2.510       .  S
Cd369       O718   2.507       .  S
Cd369       O714   2.457       .  S
O370       Cd713   2.618   1_465  S
C372        C391   1.528       .  S
C372       O1054   1.279       .  A
C372        O376   1.260   1_455  A
O374       Cd713   2.443   1_465  S
O376      Cd1057   2.411       .  S
C377        C381   1.539       .  S
C377        C437   1.571       .  S
C377        C448   1.581       .  S
O378        C381   1.280       .  A
C379        O388   1.261       .  A
C379        O384   1.262       .  A
O380        C386   1.271       .  A
C381        O389   1.260       .  A
C382        O387   1.262       .  A
C382        O385   1.272       .  A
Cd383       O388   2.552       .  S
Cd383       O384   2.558       .  S
Cd383       O387   2.501       .  S
Cd383       O385   2.502       .  S
C386        O390   1.258       .  A
C391        C396   1.539       .  S
C391        C493   1.577       .  S
C391        C504   1.586       .  S
O392        C395   1.265       .  A
O392      Cd1085   2.491   1_455  S
C393        O402   1.277       .  A
C393        O398   1.259       .  A
O394        C400   1.266       .  A
O394       Cd397   2.546       .  S
C395        O403   1.263       .  A
C396       O1089   1.274       .  A
C396        O399   1.264   1_455  A
Cd397      O1080   2.521       .  S
Cd397       O404   2.478       .  S
Cd397      O1091   2.533       .  S
Cd397       O402   2.565       .  S
Cd397       O398   2.418       .  S
Cd397       O401   2.465       .  S
Cd397      O1087   2.555       .  S
O399      Cd1085   2.479       .  S
C400        O404   1.267       .  A
O401       C1084   1.262       .  A
O403      Cd1085   2.551   1_455  S
C405        C406   1.394       .  A
C405        C410   1.398       .  A
C405        H412   1.081       .  S
C406        C407   1.445       .  A
C407        C408   1.417       .  A
C407        N414   1.433       .  S
C408        C409   1.407       .  A
C408        H413   1.083       .  S
C409        C410   1.438       .  A
C410        N411   1.422       .  S
N411        O415   1.258       .  A
N411        O416   1.257       .  A
N414        O418   1.261       .  A
N414        O417   1.261       .  A
C419        C420   1.425       .  A
C419        C424   1.436       .  A
C419        H426   1.081       .  S
C420        C534   1.613       .  S
C420        C421   1.425       .  A
C421        C422   1.407       .  A
C421        N600   1.414       .  S
C422        C423   1.404       .  A
C422        H427   1.080       .  S
C423        C424   1.435       .  A
C424        N425   1.429       .  S
N425        O429   1.260       .  A
N425        O430   1.260       .  A
N428        C593   1.415   1_554  S
N428        O432   1.259       .  A
N428        O431   1.254       .  A
C433        C434   1.402       .  A
C433        C438   1.411       .  A
C433        H440   1.084   1_554  S
C434        C519   1.571   1_554  S
C434        C435   1.426       .  A
C435        C436   1.400       .  A
C435        N442   1.421       .  S
C436        C437   1.400       .  A
C436        H441   1.083       .  S
C437        C438   1.438       .  A
C438        N439   1.426       .  S
N439       O1131   1.262       .  A
N439        O444   1.255   1_455  A
N442        O446   1.262       .  A
N442        O617   1.262       .  A
O443       N1127   1.261       .  A
O445        N614   1.261       .  A
C447        C448   1.423       .  A
C447        C452   1.418       .  A
C447        H454   1.083       .  S
C448        C449   1.423       .  A
C449        C450   1.392       .  A
C449        N456   1.423       .  S
C450        C451   1.404       .  A
C450        H455   1.079       .  S
C451        C452   1.421       .  A
C452        N453   1.429       .  S
N453        O457   1.262       .  A
N453        O458   1.262       .  A
N456        O460   1.258       .  A
N456        O459   1.258       .  A
C461        C462   1.404       .  A
C461        C466   1.408       .  A
C461        H640   1.078   1_554  S
C462        C518   1.603   1_554  S
C462        C463   1.451       .  A
C463        C464   1.410       .  A
C463        N470   1.420       .  S
C464        C465   1.390       .  A
C464        H469   1.081       .  S
C465        C466   1.433       .  A
C466        N467   1.424       .  S
N467        O471   1.258       .  A
N467        O472   1.260       .  A
H468        C633   1.078       .  S
N470        O474   1.263       .  A
N470        O473   1.263       .  A
C475        C476   1.383       .  A
C475        C480   1.397       .  A
C475        H482   1.085       .  S
C476        C477   1.439       .  A
C477        C478   1.430       .  A
C477        N484   1.432       .  S
C478        C479   1.417       .  A
C478        H483   1.081       .  S
C479        C480   1.443       .  A
C480        N481   1.412       .  S
N481        O485   1.261       .  A
N481        O486   1.263       .  A
N484        O488   1.260       .  A
N484        O487   1.261       .  A
C489        C490   1.414       .  A
C489        C494   1.421       .  A
C489        H496   1.082       .  S
C490        C491   1.422       .  A
C491        C492   1.400       .  A
C491        N498   1.418       .  S
C492        C493   1.403       .  A
C492        H497   1.083       .  S
C493        C494   1.434       .  A
C494        N495   1.431       .  S
N495        O499   1.261       .  A
N495        O500   1.262   1_455  A
N498        O502   1.262       .  A
N498        O501   1.261       .  A
C503        C504   1.426       .  A
C503        C508   1.425       .  A
C503        H510   1.082       .  S
C504        C505   1.416       .  A
C505        C506   1.404       .  A
C505        N512   1.432       .  S
C506        C507   1.419       .  A
C506        H511   1.084       .  S
C507        C517   1.592       .  S
C507        C508   1.428       .  A
C508        N681   1.442       .  S
N509        C680   1.444   1_554  S
N509        O513   1.263       .  A
N509        O514   1.261       .  A
N512        O516   1.261       .  A
N512        O515   1.263       .  A
C517        C528   1.553       .  S
C517        C554   1.537       .  S
C517        C662   1.582       .  S
C518        C523   1.516       .  S
C518        C565   1.527       .  S
C518        C648   1.592       .  S
C519        C521   1.535       .  S
C519        C567   1.543       .  S
C519        C623   1.573       .  S
O520        C523   1.275       .  A
C521        O526   1.269       .  A
O522        C528   1.258       .  A
O522       Cd525   2.333       .  S
C524        C534   1.524       .  S
C524        O529   1.274       .  A
Cd525       O531   2.505       .  S
Cd525       O530   2.531       .  S
Cd525       O529   2.454       .  S
C533        C539   1.517       .  S
C533        C551   1.543       .  S
C533        C637   1.576       .  S
C533        C651   1.616       .  S
C534        C558   1.538       .  S
C534        C578   1.582       .  S
C535        C540   1.523       .  S
C535        C572   1.544       .  S
C535        C581   1.582       .  S
C535        C595   1.598       .  S
O536        C539   1.257       .  A
O536       Cd541   2.492       .  S
C537        C549   1.547       .  S
C537        O546   1.258       .  A
C537        O542   1.272       .  A
O538       C1232   1.277       .  A
O538       Cd541   2.509       .  S
C539        O547   1.279       .  A
C540        O545   1.270       .  A
C540        O543   1.249       .  A
Cd541      O1236   2.420       .  S
Cd541       O547   2.456       .  S
Cd541       O890   2.491       .  S
Cd541       O886   2.423       .  S
O542       Cd885   2.616   1_465  S
C544        C563   1.525       .  S
C544       O1226   1.273       .  A
C544        O548   1.259   1_455  A
O546       Cd885   2.370   1_465  S
O548      Cd1229   2.368       .  S
C549        C553   1.555       .  S
C549        C609   1.574       .  S
C549        C620   1.590       .  S
O550        C553   1.281       .  A
C551        O560   1.256       .  A
C551        O556   1.264       .  A
O552        C558   1.271       .  A
C553        O561   1.263       .  A
C554        O559   1.264       .  A
C554        O557   1.271       .  A
Cd555       O560   2.497       .  S
Cd555       O556   2.609       .  S
Cd555       O559   2.445       .  S
Cd555       O557   2.561       .  S
C558        O562   1.259       .  A
C563        C568   1.525       .  S
C563        C665   1.581       .  S
C563        C676   1.586       .  S
O564        C567   1.269       .  A
O564      Cd1257   2.468   1_455  S
C565        O574   1.274       .  A
C565        O570   1.258       .  A
O566        C572   1.267       .  A
O566       Cd569   2.525       .  S
C567        O575   1.264       .  A
C568       O1261   1.262   1_455  A
C568        O571   1.272       .  A
Cd569      O1252   2.520       .  S
Cd569       O576   2.469       .  S
Cd569      O1263   2.525       .  S
Cd569       O574   2.528       .  S
Cd569       O570   2.425       .  S
Cd569       O573   2.420       .  S
Cd569      O1259   2.538       .  S
O571      Cd1257   2.514   1_455  S
C572        O576   1.266       .  A
O573       C1256   1.261       .  A
O575      Cd1257   2.518   1_455  S
C577        C578   1.396       .  A
C577        C582   1.398       .  A
C577        H584   1.081       .  S
C578        C579   1.447       .  A
C579        C580   1.417       .  A
C579        N586   1.434       .  S
C580        C581   1.405       .  A
C580        H585   1.083       .  S
C581        C582   1.435       .  A
C582        N583   1.425       .  S
N583        O587   1.255       .  A
N583        O588   1.258       .  A
N586        O590   1.261       .  A
N586        O589   1.261       .  A
C591        C592   1.424       .  A
C591        C596   1.433       .  A
C591        H598   1.078       .  S
C592        C593   1.422       .  A
C593        C594   1.405       .  A
C594        C595   1.406       .  A
C594        H599   1.079       .  S
C595        C596   1.433       .  A
C596        N597   1.430       .  S
N597        O601   1.260       .  A
N597        O602   1.259       .  A
N600        O604   1.260       .  A
N600        O603   1.254       .  A
C605        C606   1.398       .  A
C605        C610   1.408       .  A
C605        H612   1.084       .  S
C606        C607   1.424       .  A
C607        C608   1.400       .  A
C607        N614   1.427       .  S
C608        C609   1.406       .  A
C608        H613   1.082       .  S
C609        C610   1.442       .  A
C610        N611   1.426       .  S
N611       O1303   1.260       .  A
N611        O616   1.262   1_455  A
N614        O618   1.260       .  A
O615       N1299   1.261       .  A
C619        C620   1.426       .  A
C619        C624   1.415       .  A
C619        H626   1.082       .  S
C620        C621   1.426       .  A
C621        C622   1.399       .  A
C621        N628   1.426       .  S
C622        C623   1.408       .  A
C622        H627   1.076       .  S
C623        C624   1.419       .  A
C624        N625   1.429       .  S
N625        O629   1.260       .  A
N625        O630   1.262       .  A
N628        O632   1.260       .  A
N628        O631   1.259       .  A
C633        C634   1.403       .  A
C633        C638   1.407       .  A
C634        C635   1.443       .  A
C635        C636   1.408       .  A
C635        N642   1.411       .  S
C636        C637   1.386       .  A
C636        H641   1.080       .  S
C637        C638   1.432       .  A
C638        N639   1.421       .  S
N639        O643   1.254       .  A
N639        O644   1.261       .  A
N642        O646   1.263       .  A
N642        O645   1.260       .  A
C647        C648   1.385       .  A
C647        C652   1.397       .  A
C647        H654   1.085       .  S
C648        C649   1.443       .  A
C649        C650   1.428       .  A
C649        N656   1.429       .  S
C650        C651   1.414       .  A
C650        H655   1.082       .  S
C651        C652   1.448       .  A
C652        N653   1.415       .  S
N653        O657   1.260       .  A
N653        O658   1.262       .  A
N656        O660   1.260       .  A
N656        O659   1.260       .  A
C661        C662   1.409       .  A
C661        C666   1.423       .  A
C661        H668   1.081       .  S
C662        C663   1.426       .  A
C663        C664   1.401       .  A
C663        N670   1.421       .  S
C664        C665   1.404       .  A
C664        H669   1.083       .  S
C665        C666   1.441       .  A
C666        N667   1.436       .  S
N667        O671   1.262       .  A
N667        O672   1.260   1_455  A
N670        O674   1.262       .  A
N670        O673   1.261       .  A
C675        C676   1.422       .  A
C675        C680   1.425       .  A
C675        H682   1.081       .  S
C676        C677   1.411       .  A
C677        C678   1.404       .  A
C677        N684   1.430       .  S
C678        C679   1.424       .  A
C678        H683   1.067       .  S
C679        C680   1.436       .  A
N681        O685   1.263   1_455  A
N681        O686   1.261       .  A
N684        O688   1.260       .  A
N684        O687   1.261       .  A
C689        C700   1.539       .  S
C689        C726   1.532       .  S
C689        C834   1.579       .  S
C689       C1023   1.593       .  S
C690        C695   1.527       .  S
C690        C737   1.524       .  S
C690        C978   1.593       .  S
C690        C820   1.581       .  S
C691        C693   1.542       .  S
C691        C739   1.551       .  S
C691        C950   1.581       .  S
C691        C795   1.584       .  S
O692        C695   1.259       .  A
O692       Cd869   2.457       .  S
C693        O874   1.260       .  A
C693        O698   1.273       .  A
O694        C700   1.254       .  A
O694       Cd697   2.371   1_554  S
C695        O875   1.276       .  A
C696        C706   1.529       .  S
C696        O701   1.272       .  A
C696        O871   1.260       .  A
Cd697       O864   2.479       .  S
Cd697       O876   2.598   1_556  S
Cd697       O703   2.520       .  S
Cd697       O702   2.537       .  S
Cd697       O870   2.489       .  S
Cd697       O701   2.485   1_556  S
Cd697       O871   2.427   1_556  S
O698       Cd869   2.511       .  S
O699        C868   1.260       .  A
O699       Cd869   2.450       .  S
C700        O876   1.274       .  A
O702        C865   1.263       .  A
O703        C867   1.258       .  A
O704        C872   1.265       .  A
O704       Cd869   2.473       .  S
C705        C711   1.525       .  S
C705        C723   1.536       .  S
C705        C809   1.573       .  S
C705        C823   1.604       .  S
C706        C730   1.535       .  S
C706        C750   1.569       .  S
C706        C936   1.601   1_554  S
C707        C712   1.524       .  S
C707        C744   1.543       .  S
C707        C753   1.579       .  S
C707        C767   1.586       .  S
O708        C711   1.254       .  A
O708       Cd713   2.518       .  S
C709        C721   1.533       .  S
C709        O718   1.266       .  A
C709        O714   1.265       .  A
O710       Cd713   2.522   1_455  S
C711        O719   1.276       .  A
C712        O717   1.270       .  A
C712        O715   1.249       .  A
Cd713       O719   2.494       .  S
Cd713      O1061   2.550   1_545  S
Cd713      O1059   2.482   1_545  S
O715      Cd1057   2.411       .  S
C716        C735   1.532       .  S
C716        O720   1.263       .  A
O717      Cd1057   2.599       .  S
C721        C725   1.546       .  S
C721        C781   1.583       .  S
C721        C792   1.593       .  S
O722        C725   1.280       .  A
O722      Cd1071   2.565       .  S
C723        O732   1.261       .  A
C723        O728   1.264   1_545  A
O724        C730   1.271       .  A
O724      Cd1071   2.583       .  S
C725        O733   1.265       .  A
C726        O731   1.266       .  A
C726        O729   1.270       .  A
Cd727      O1066   2.549       .  S
Cd727      O1068   2.651       .  S
Cd727      O1078   2.290       .  S
Cd727      O1077   2.427       .  S
Cd727       O732   2.474   1_565  S
Cd727       O728   2.573       .  S
Cd727       O731   2.429   1_565  S
Cd727       O729   2.526   1_565  S
C730        O734   1.253       .  A
O733      Cd1071   2.436       .  S
O734      Cd1071   2.396       .  S
C735        C740   1.533       .  S
C735        C837   1.576       .  S
C735        C848   1.581       .  S
O736        C739   1.267       .  A
C737        O746   1.275       .  A
C737        O742   1.262       .  A
O738        C744   1.262       .  A
O738       Cd741   2.362       .  S
C739        O747   1.265       .  A
C740        O743   1.273       .  A
Cd741       O748   2.563       .  S
Cd741       O746   2.481       .  S
Cd741       O742   2.403       .  S
Cd741       O745   2.444       .  S
C744        O748   1.281       .  A
C749        C750   1.388       .  A
C749        C754   1.392       .  A
C749        H756   1.078       .  S
C750        C751   1.440       .  A
C751        C752   1.421       .  A
C751        N758   1.433       .  S
C752        C753   1.408       .  A
C752        H757   1.081       .  S
C753        C754   1.430       .  A
C754        N755   1.425       .  S
N755        O759   1.259       .  A
N755        O760   1.261       .  A
N758        O762   1.261       .  A
N758        O761   1.259       .  A
C763        C764   1.419       .  A
C763        C768   1.416       .  A
C763        H770   1.075       .  S
C764        C878   1.596       .  S
C764        C765   1.437       .  A
C765        C766   1.405       .  A
C765        N944   1.428       .  S
C766        C767   1.406       .  A
C766        H771   1.084       .  S
C767        C768   1.422       .  A
C768        N769   1.426       .  S
N769        O773   1.261       .  A
N769        O774   1.258       .  A
N772        C937   1.420   1_554  S
N772        O776   1.259       .  A
N772        O775   1.252       .  A
C777        C778   1.402       .  A
C777        C782   1.416       .  A
C777        H784   1.084   1_554  S
C778        C863   1.576   1_554  S
C778        C779   1.427       .  A
C779        C780   1.403       .  A
C779        N786   1.420       .  S
C780        C781   1.401       .  A
C780        H785   1.082       .  S
C781        C782   1.442       .  A
C782        N783   1.425       .  S
N783        O788   1.262       .  A
N786        O790   1.260       .  A
N786        O961   1.261       .  A
O789        N958   1.259       .  A
C791        C792   1.426       .  A
C791        C796   1.422       .  A
C791        H798   1.081       .  S
C792        C793   1.431       .  A
C793        C794   1.400       .  A
C793        N800   1.427       .  S
C794        C795   1.409       .  A
C794        H799   1.078       .  S
C795        C796   1.423       .  A
C796        N797   1.428       .  S
N797        O801   1.258       .  A
N797        O802   1.262       .  A
N800        O804   1.259       .  A
N800        O803   1.260       .  A
C805        C806   1.402   1_554  A
C805        C810   1.406       .  A
C805        H984   1.080   1_554  S
C806        C862   1.586       .  S
C806        C807   1.437   1_556  A
C807        C808   1.408       .  A
C807        N814   1.413       .  S
C808        C809   1.389       .  A
C808        H813   1.082       .  S
C809        C810   1.434       .  A
C810        N811   1.424       .  S
N811        O815   1.260       .  A
N811        O816   1.261       .  A
H812        C977   1.079       .  S
N814        O818   1.263       .  A
N814        O817   1.259       .  A
C819        C820   1.387       .  A
C819        C824   1.395       .  A
C819        H826   1.084       .  S
C820        C821   1.435       .  A
C821        C822   1.423       .  A
C821        N828   1.424       .  S
C822        C823   1.413       .  A
C822        H827   1.082       .  S
C823        C824   1.448       .  A
C824        N825   1.418       .  S
N825        O829   1.256       .  A
N825        O830   1.262       .  A
N828        O832   1.259       .  A
N828        O831   1.260       .  A
C833        C834   1.412       .  A
C833        C838   1.420       .  A
C833        H840   1.082       .  S
C834        C835   1.427       .  A
C835        C836   1.400       .  A
C835        N842   1.421       .  S
C836        C837   1.404       .  A
C836        H841   1.083       .  S
C837        C838   1.434       .  A
C838        N839   1.429       .  S
N839        O843   1.261       .  A
N839        O844   1.262       .  A
N842        O846   1.261       .  A
N842        O845   1.261       .  A
C847        C848   1.418       .  A
C847        C852   1.419       .  A
C847        H854   1.082       .  S
C848        C849   1.414       .  A
C849        C850   1.404       .  A
C849        N856   1.431       .  S
C850        C851   1.426       .  A
C850        H855   1.070       .  S
C851        C861   1.600       .  S
C851        C852   1.434       .  A
C852       N1025   1.433       .  S
N853       C1024   1.445   1_554  S
N853        O857   1.263       .  A
N853        O858   1.261       .  A
N856        O860   1.259       .  A
N856        O859   1.261       .  A
C861        C872   1.539       .  S
C861        C898   1.540       .  S
C861       C1006   1.588       .  S
C862        C867   1.522       .  S
C862        C909   1.535       .  S
C862        C992   1.579       .  S
C863        C865   1.542       .  S
C863        C911   1.552       .  S
C863        C967   1.581       .  S
O864        C867   1.266       .  A
C865        O870   1.267       .  A
O866        C872   1.262       .  A
O866       Cd869   2.506       .  S
C868        C878   1.518       .  S
C868        O873   1.261       .  A
Cd869       O875   2.487       .  S
Cd869       O874   2.488       .  S
Cd869       O873   2.434       .  S
C877        C883   1.527       .  S
C877        C895   1.546       .  S
C877        C981   1.580       .  S
C877        C995   1.600       .  S
C878        C902   1.542       .  S
C878        C922   1.570       .  S
C879        C884   1.525       .  S
C879        C916   1.554       .  S
C879        C925   1.577       .  S
C879        C939   1.587       .  S
O880        C883   1.260       .  A
O880       Cd885   2.539       .  S
C881        C893   1.522       .  S
C881        O890   1.265       .  A
C881        O886   1.264       .  A
O882       Cd885   2.568   1_455  S
C883        O891   1.272       .  A
C884        O889   1.266       .  A
C884        O887   1.260       .  A
Cd885       O891   2.499       .  S
Cd885      O1233   2.546   1_545  S
Cd885      O1231   2.476   1_545  S
O887      Cd1229   2.445       .  S
C888        C907   1.533       .  S
C888        O892   1.262       .  A
O889      Cd1229   2.540       .  S
C893        C897   1.532       .  S
C893        C953   1.577       .  S
C893        C964   1.588       .  S
O894        C897   1.275       .  A
O894      Cd1243   2.506       .  S
C895        O904   1.258       .  A
C895        O900   1.264   1_545  A
O896        C902   1.272       .  A
O896      Cd1243   2.567       .  S
C897        O905   1.260       .  A
C898        O903   1.263       .  A
C898        O901   1.272       .  A
Cd899      O1238   2.420       .  S
Cd899      O1240   2.355       .  S
Cd899      O1250   2.582       .  S
Cd899      O1249   2.533       .  S
Cd899       O904   2.508   1_565  S
Cd899       O900   2.606       .  S
Cd899       O903   2.500   1_565  S
Cd899       O901   2.493   1_565  S
C902        O906   1.265       .  A
O905      Cd1243   2.428       .  S
O906      Cd1243   2.442       .  S
C907        C912   1.529       .  S
C907       C1009   1.578       .  S
C907       C1020   1.586       .  S
O908        C911   1.270       .  A
C909        O918   1.261       .  A
C909        O914   1.275       .  A
O910        C916   1.278       .  A
O910       Cd913   2.545       .  S
C911        O919   1.265       .  A
C912        O915   1.272       .  A
Cd913       O920   2.426       .  S
Cd913       O918   2.444       .  S
Cd913       O914   2.513       .  S
Cd913       O917   2.446       .  S
C916        O920   1.263       .  A
C921        C922   1.392       .  A
C921        C926   1.392       .  A
C921        H928   1.078       .  S
C922        C923   1.434       .  A
C923        C924   1.412       .  A
C923        N930   1.422       .  S
C924        C925   1.403       .  A
C924        H929   1.080       .  S
C925        C926   1.429       .  A
C926        N927   1.424       .  S
N927        O931   1.256       .  A
N927        O932   1.261       .  A
N930        O934   1.261       .  A
N930        O933   1.261       .  A
C935        C936   1.411       .  A
C935        C940   1.414       .  A
C935        H942   1.072       .  S
C936        C937   1.430       .  A
C937        C938   1.405       .  A
C938        C939   1.410       .  A
C938        H943   1.080       .  S
C939        C940   1.430       .  A
C940        N941   1.428       .  S
N941        O945   1.263       .  A
N941        O946   1.260       .  A
N944        O948   1.261       .  A
N944        O947   1.257       .  A
C949        C950   1.406       .  A
C949        C954   1.417       .  A
C949        H956   1.084       .  S
C950        C951   1.428       .  A
C951        C952   1.395       .  A
C951        N958   1.413       .  S
C952        C953   1.397       .  A
C952        H957   1.085       .  S
C953        C954   1.442       .  A
C954        N955   1.425       .  S
N955        O960   1.263       .  A
N958        O962   1.260       .  A
C963        C964   1.423       .  A
C963        C968   1.414       .  A
C963        H970   1.081       .  S
C964        C965   1.424       .  A
C965        C966   1.402       .  A
C965        N972   1.427       .  S
C966        C967   1.413       .  A
C966        H971   1.077       .  S
C967        C968   1.420       .  A
C968        N969   1.426       .  S
N969        O973   1.257       .  A
N969        O974   1.260       .  A
N972        O976   1.259       .  A
N972        O975   1.257       .  A
C977        C978   1.397       .  A
C977        C982   1.405       .  A
C978        C979   1.444       .  A
C979        C980   1.418       .  A
C979        N986   1.422       .  S
C980        C981   1.399       .  A
C980        H985   1.082       .  S
C981        C982   1.430       .  A
C982        N983   1.422       .  S
N983        O987   1.257       .  A
N983        O988   1.261       .  A
N986        O990   1.262       .  A
N986        O989   1.258       .  A
C991        C992   1.389       .  A
C991        C996   1.396       .  A
C991        H998   1.085       .  S
C992        C993   1.440       .  A
C993        C994   1.428       .  A
C993       N1000   1.434       .  S
C994        C995   1.413       .  A
C994        H999   1.082       .  S
C995        C996   1.443       .  A
C996        N997   1.420       .  S
N997       O1001   1.252       .  A
N997       O1002   1.262       .  A
N1000      O1004   1.261       .  A
N1000      O1003   1.260       .  A
C1005      C1006   1.412       .  A
C1005      C1010   1.425       .  A
C1005      H1012   1.082       .  S
C1006      C1007   1.425       .  A
C1007      C1008   1.399       .  A
C1007      N1014   1.419       .  S
C1008      C1009   1.402       .  A
C1008      H1013   1.083       .  S
C1009      C1010   1.438       .  A
C1010      N1011   1.436       .  S
N1011      O1015   1.261       .  A
N1011      O1016   1.261       .  A
N1014      O1018   1.261       .  A
N1014      O1017   1.260       .  A
C1019      C1020   1.424       .  A
C1019      C1024   1.426       .  A
C1019      H1026   1.081       .  S
C1020      C1021   1.416       .  A
C1021      C1022   1.406       .  A
C1021      N1028   1.434       .  S
C1022      C1023   1.418   1_556  A
C1022      H1027   1.082       .  S
C1023      C1024   1.432   1_554  A
N1025      O1029   1.264       .  A
N1025      O1030   1.260       .  A
N1028      O1032   1.259       .  A
N1028      O1031   1.262       .  A
C1033      C1044   1.535       .  S
C1033      C1070   1.543       .  S
C1033      C1178   1.585       .  S
C1033      C1367   1.608   1_554  S
C1034      C1039   1.540       .  S
C1034      C1081   1.518       .  S
C1034      C1322   1.593       .  S
C1034      C1164   1.577       .  S
C1035      C1037   1.544       .  S
C1035      C1083   1.552       .  S
C1035      C1294   1.578       .  S
C1035      C1139   1.578       .  S
O1036      C1039   1.269       .  A
O1036     Cd1213   2.488       .  S
C1037      O1218   1.261       .  A
C1037      O1042   1.271       .  A
O1038      C1044   1.265       .  A
O1038     Cd1041   2.463   1_554  S
C1039      O1219   1.258       .  A
C1040      C1050   1.516       .  S
C1040      O1045   1.269       .  A
C1040      O1215   1.260   1_554  A
Cd1041     O1208   2.470       .  S
Cd1041     O1220   2.515   1_556  S
Cd1041     O1047   2.524       .  S
Cd1041     O1046   2.491       .  S
Cd1041     O1214   2.517       .  S
Cd1041     O1045   2.479   1_556  S
Cd1041     O1215   2.454       .  S
O1042     Cd1213   2.501       .  S
O1043      C1212   1.257       .  A
O1043     Cd1213   2.407       .  S
C1044      O1220   1.268       .  A
O1046      C1209   1.256       .  A
O1047      C1211   1.262       .  A
O1048      C1216   1.271       .  A
O1048     Cd1213   2.585       .  S
C1049      C1055   1.526       .  S
C1049      C1067   1.563       .  S
C1049      C1153   1.589       .  S
C1049      C1167   1.619       .  S
C1050      C1074   1.555       .  S
C1050      C1094   1.572       .  S
C1050      C1280   1.596   1_554  S
C1051      C1056   1.538       .  S
C1051      C1088   1.548       .  S
C1051      C1097   1.576       .  S
C1051      C1111   1.603       .  S
O1052      C1055   1.259       .  A
O1052     Cd1057   2.543       .  S
C1053      C1065   1.524       .  S
C1053      O1062   1.265       .  A
C1053      O1058   1.264       .  A
O1054     Cd1057   2.514   1_455  S
C1055      O1063   1.275       .  A
C1056      O1061   1.275       .  A
C1056      O1059   1.256       .  A
Cd1057     O1063   2.443       .  S
C1060      C1079   1.535       .  S
C1060      O1064   1.262       .  A
C1065      C1069   1.534       .  S
C1065      C1125   1.581       .  S
C1065      C1136   1.588       .  S
O1066      C1069   1.275       .  A
C1067      O1076   1.275       .  A
C1067      O1072   1.264       .  A
O1068      C1074   1.275       .  A
C1069      O1077   1.255       .  A
C1070      O1075   1.261       .  A
C1070      O1073   1.267       .  A
Cd1071     O1076   2.640       .  S
Cd1071     O1072   2.430       .  S
Cd1071     O1075   2.530       .  S
Cd1071     O1073   2.495       .  S
C1074      O1078   1.257       .  A
C1079      C1084   1.539       .  S
C1079      C1181   1.584       .  S
C1079      C1192   1.586       .  S
O1080      C1083   1.270       .  A
C1081      O1090   1.255       .  A
C1081      O1086   1.265       .  A
O1082      C1088   1.278       .  A
O1082     Cd1085   2.518       .  S
C1083      O1091   1.265       .  A
C1084      O1087   1.272       .  A
Cd1085     O1092   2.433       .  S
Cd1085     O1090   2.541       .  S
Cd1085     O1086   2.444       .  S
Cd1085     O1089   2.528   1_655  S
C1088      O1092   1.265       .  A
C1093      C1094   1.385       .  A
C1093      C1098   1.382       .  A
C1093      H1100   1.081       .  S
C1094      C1095   1.442       .  A
C1095      C1096   1.421       .  A
C1095      N1102   1.430       .  S
C1096      C1097   1.406       .  A
C1096      H1101   1.082       .  S
C1097      C1098   1.421       .  A
C1098      N1099   1.408       .  S
N1099      O1103   1.256       .  A
N1099      O1104   1.260       .  A
N1102      O1106   1.261       .  A
N1102      O1105   1.261       .  A
C1107      C1108   1.422       .  A
C1107      C1112   1.428       .  A
C1107      H1114   1.074       .  S
C1108      C1222   1.605       .  S
C1108      C1109   1.423       .  A
C1109      C1110   1.407       .  A
C1109      N1288   1.425       .  S
C1110      C1111   1.415       .  A
C1110      H1115   1.071       .  S
C1111      C1112   1.436       .  A
C1112      N1113   1.432       .  S
N1113      O1117   1.262       .  A
N1113      O1118   1.258       .  A
N1116      C1281   1.427   1_554  S
N1116      O1120   1.260       .  A
N1116      O1119   1.256       .  A
C1121      C1122   1.407       .  A
C1121      C1126   1.420       .  A
C1121      H1128   1.084   1_554  S
C1122      C1207   1.582   1_554  S
C1122      C1123   1.427       .  A
C1123      C1124   1.395       .  A
C1123      N1130   1.411       .  S
C1124      C1125   1.393       .  A
C1124      H1129   1.083       .  S
C1125      C1126   1.442       .  A
C1126      N1127   1.425       .  S
N1127      O1132   1.263       .  A
N1130      O1134   1.261       .  A
N1130      O1305   1.258       .  A
O1133      N1302   1.261       .  A
C1135      C1136   1.423       .  A
C1135      C1140   1.415       .  A
C1135      H1142   1.081       .  S
C1136      C1137   1.425       .  A
C1137      C1138   1.400       .  A
C1137      N1144   1.424       .  S
C1138      C1139   1.411       .  A
C1138      H1143   1.079       .  S
C1139      C1140   1.422       .  A
C1140      N1141   1.429       .  S
N1141      O1145   1.259       .  A
N1141      O1146   1.261       .  A
N1144      O1148   1.258       .  A
N1144      O1147   1.259       .  A
C1149      C1150   1.407       .  A
C1149      C1154   1.412       .  A
C1149      H1328   1.080   1_554  S
C1150      C1206   1.602   1_554  S
C1150      C1151   1.456       .  A
C1151      C1152   1.407       .  A
C1151      N1158   1.424       .  S
C1152      C1153   1.384       .  A
C1152      H1157   1.075       .  S
C1153      C1154   1.438       .  A
C1154      N1155   1.427       .  S
N1155      O1159   1.261       .  A
N1155      O1160   1.262       .  A
H1156      C1321   1.083       .  S
N1158      O1162   1.256       .  A
N1158      O1161   1.264       .  A
C1163      C1164   1.383       .  A
C1163      C1168   1.401       .  A
C1163      H1170   1.084       .  S
C1164      C1165   1.431       .  A
C1165      C1166   1.425       .  A
C1165      N1172   1.424       .  S
C1166      C1167   1.415       .  A
C1166      H1171   1.081       .  S
C1167      C1168   1.451       .  A
C1168      N1169   1.413       .  S
N1169      O1173   1.259       .  A
N1169      O1174   1.262       .  A
N1172      O1176   1.259       .  A
N1172      O1175   1.261       .  A
C1177      C1178   1.412       .  A
C1177      C1182   1.421       .  A
C1177      H1184   1.083       .  S
C1178      C1179   1.428       .  A
C1179      C1180   1.405       .  A
C1179      N1186   1.428       .  S
C1180      C1181   1.409       .  A
C1180      H1185   1.082       .  S
C1181      C1182   1.437       .  A
C1182      N1183   1.431       .  S
N1183      O1187   1.261       .  A
N1183      O1188   1.261       .  A
N1186      O1190   1.261       .  A
N1186      O1189   1.260       .  A
C1191      C1192   1.424       .  A
C1191      C1196   1.423       .  A
C1191      H1198   1.081       .  S
C1192      C1193   1.415       .  A
C1193      C1194   1.407       .  A
C1193      N1200   1.435       .  S
C1194      C1195   1.425       .  A
C1194      H1199   1.081       .  S
C1195      C1205   1.595       .  S
C1195      C1196   1.429       .  A
C1196      N1369   1.442       .  S
N1197      C1368   1.445   1_554  S
N1197      O1201   1.263       .  A
N1197      O1202   1.260       .  A
N1200      O1204   1.261       .  A
N1200      O1203   1.262       .  A
C1205      C1216   1.536       .  S
C1205      C1242   1.541       .  S
C1205      C1350   1.596       .  S
C1206      C1211   1.524       .  S
C1206      C1253   1.544       .  S
C1206      C1336   1.605       .  S
C1207      C1209   1.543       .  S
C1207      C1255   1.549       .  S
C1207      C1311   1.578       .  S
O1208      C1211   1.267       .  A
C1209      O1214   1.272       .  A
O1210      C1216   1.252       .  A
O1210     Cd1213   2.414       .  S
C1212      C1222   1.517       .  S
C1212      O1217   1.273       .  A
Cd1213     O1219   2.546       .  S
Cd1213     O1218   2.512       .  S
Cd1213     O1217   2.482       .  S
C1221      C1227   1.542       .  S
C1221      C1239   1.520       .  S
C1221      C1325   1.600       .  S
C1221      C1339   1.597       .  S
C1222      C1246   1.545       .  S
C1222      C1266   1.581       .  S
C1223      C1228   1.532       .  S
C1223      C1260   1.552       .  S
C1223      C1269   1.572       .  S
C1223      C1283   1.593       .  S
O1224      C1227   1.263       .  A
O1224     Cd1229   2.465       .  S
C1225      C1237   1.526       .  S
C1225      O1234   1.268       .  A
C1225      O1230   1.262       .  A
O1226     Cd1229   2.482   1_455  S
C1227      O1235   1.280       .  A
C1228      O1233   1.271       .  A
C1228      O1231   1.257       .  A
Cd1229     O1235   2.560       .  S
C1232      C1251   1.530       .  S
C1232      O1236   1.261       .  A
C1237      C1241   1.534       .  S
C1237      C1297   1.575       .  S
C1237      C1308   1.588       .  S
O1238      C1241   1.258       .  A
C1239      O1248   1.255       .  A
C1239      O1244   1.263       .  A
O1240      C1246   1.257       .  A
C1241      O1249   1.277       .  A
C1242      O1247   1.275       .  A
C1242      O1245   1.263       .  A
Cd1243     O1248   2.436       .  S
Cd1243     O1244   2.586       .  S
Cd1243     O1247   2.518       .  S
Cd1243     O1245   2.482       .  S
C1246      O1250   1.271       .  A
C1251      C1256   1.529       .  S
C1251      C1353   1.580       .  S
C1251      C1364   1.586       .  S
O1252      C1255   1.270       .  A
C1253      O1262   1.277       .  A
C1253      O1258   1.257       .  A
O1254      C1260   1.273       .  A
O1254     Cd1257   2.518       .  S
C1255      O1263   1.265       .  A
C1256      O1259   1.272       .  A
Cd1257     O1264   2.491       .  S
Cd1257     O1262   2.549       .  S
Cd1257     O1258   2.433       .  S
Cd1257     O1261   2.423       .  S
C1260      O1264   1.266       .  A
C1265      C1266   1.403       .  A
C1265      C1270   1.398       .  A
C1265      H1272   1.081       .  S
C1266      C1267   1.446       .  A
C1267      C1268   1.414       .  A
C1267      N1274   1.436       .  S
C1268      C1269   1.402       .  A
C1268      H1273   1.083       .  S
C1269      C1270   1.425       .  A
C1270      N1271   1.425       .  S
N1271      O1275   1.257       .  A
N1271      O1276   1.261       .  A
N1274      O1278   1.262       .  A
N1274      O1277   1.261       .  A
C1279      C1280   1.424       .  A
C1279      C1284   1.429       .  A
C1279      H1286   1.076       .  S
C1280      C1281   1.428       .  A
C1281      C1282   1.396       .  A
C1282      C1283   1.406       .  A
C1282      H1287   1.072       .  S
C1283      C1284   1.434       .  A
C1284      N1285   1.434       .  S
N1285      O1289   1.261       .  A
N1285      O1290   1.259       .  A
N1288      O1292   1.262       .  A
N1288      O1291   1.258       .  A
C1293      C1294   1.406       .  A
C1293      C1298   1.417       .  A
C1293      H1300   1.083       .  S
C1294      C1295   1.427       .  A
C1295      C1296   1.399       .  A
C1295      N1302   1.416       .  S
C1296      C1297   1.397       .  A
C1296      H1301   1.084       .  S
C1297      C1298   1.440       .  A
C1298      N1299   1.427       .  S
N1299      O1304   1.262       .  A
N1302      O1306   1.261       .  A
C1307      C1308   1.426       .  A
C1307      C1312   1.416       .  A
C1307      H1314   1.080       .  S
C1308      C1309   1.427       .  A
C1309      C1310   1.399       .  A
C1309      N1316   1.428       .  S
C1310      C1311   1.411       .  A
C1310      H1315   1.078       .  S
C1311      C1312   1.420       .  A
C1312      N1313   1.428       .  S
N1313      O1317   1.260       .  A
N1313      O1318   1.261       .  A
N1316      O1320   1.259       .  A
N1316      O1319   1.257       .  A
C1321      C1322   1.393       .  A
C1321      C1326   1.401       .  A
C1322      C1323   1.453       .  A
C1323      C1324   1.421       .  A
C1323      N1330   1.432       .  S
C1324      C1325   1.400       .  A
C1324      H1329   1.082       .  S
C1325      C1326   1.440       .  A
C1326      N1327   1.422       .  S
N1327      O1331   1.261       .  A
N1327      O1332   1.262       .  A
N1330      O1334   1.261       .  A
N1330      O1333   1.262       .  A
C1335      C1336   1.405       .  A
C1335      C1340   1.417       .  A
C1335      H1342   1.079       .  S
C1336      C1337   1.441       .  A
C1337      C1338   1.419       .  A
C1337      N1344   1.430       .  S
C1338      C1339   1.405       .  A
C1338      H1343   1.079       .  S
C1339      C1340   1.440       .  A
C1340      N1341   1.429       .  S
N1341      O1345   1.262       .  A
N1341      O1346   1.262       .  A
N1344      O1348   1.262       .  A
N1344      O1347   1.262       .  A
C1349      C1350   1.419       .  A
C1349      C1354   1.427       .  A
C1349      H1356   1.082       .  S
C1350      C1351   1.431       .  A
C1351      C1352   1.398       .  A
C1351      N1358   1.418       .  S
C1352      C1353   1.399       .  A
C1352      H1357   1.083       .  S
C1353      C1354   1.434       .  A
C1354      N1355   1.431       .  S
N1355      O1359   1.261       .  A
N1355      O1360   1.262       .  A
N1358      O1362   1.262       .  A
N1358      O1361   1.263       .  A
C1363      C1364   1.423       .  A
C1363      C1368   1.427       .  A
C1363      H1370   1.083       .  S
C1364      C1365   1.415       .  A
C1365      C1366   1.399       .  A
C1365      N1372   1.440       .  S
C1366      C1367   1.430       .  A
C1366      H1371   1.087       .  S
C1367      C1368   1.440       .  A
N1369      O1373   1.263       .  A
N1369      O1374   1.261       .  A
N1372      O1376   1.264       .  A
N1372      O1375   1.261       .  A
