geometry optimzed in LAMMPS
_audit_creation_date              2020-11-30 
_audit_creation_method            'lammps2cif' 
_symmetry_space_group_name_H-M    'P1' 
_symmetry_Int_Tables_number       1 
_symmetry_cell_setting            triclinic 
loop_ 
_symmetry_equiv_pos_as_xyz 
  x,y,z 
_cell_length_a                    52.21372348 
_cell_length_b                    51.4779790496928 
_cell_length_c                    41.13852666385913 
_cell_angle_alpha                 90.31780917171162 
_cell_angle_beta                  86.76887364878941 
_cell_angle_gamma                 119.19536144835484 
loop_ 
_atom_site_label 
_atom_site_type_symbol 
_atom_site_fract_x 
_atom_site_fract_y 
_atom_site_fract_z 
_atom_site_charge 
O1          O  0.26155531  0.28254065  0.03871910    -0.72800
O2          O  0.21443732  0.23706456  0.46163556    -0.73800
O3          O  0.20748250  0.23000958  0.03079254    -0.62400
O4          O  0.26869878  0.28946447  0.47052027    -0.70800
O5          O  0.29135207  0.26260208  0.46446195    -0.70400
O6          O  0.23186062  0.20471842  0.02756110    -0.61600
O7          O  0.23701930  0.21000581  0.45796603    -0.74100
O8          O  0.28655799  0.25800085  0.03317280    -0.72900
Cu9        Cu  0.23704852  0.26224078  0.00065481     1.04600
Cu10       Cu  0.26160148  0.23071245  0.49552089     1.04300
C11         C  0.28147146  0.27704532  0.04796403     0.93400
C12         C  0.21840362  0.21690443  0.44780479     0.92500
C13         C  0.21009576  0.20759895  0.03899208     0.84700
C14         C  0.28969135  0.28598445  0.45797516     0.90900
O15         O  0.01222722  0.29283963  0.47681530    -0.72800
O16         O  0.00890987  0.22964833  0.04574164    -0.73800
O17         O  0.01348835  0.23777667  0.47402634    -0.62400
O18         O  0.01024370  0.28562142  0.04825141    -0.70800
O19         O  0.47041297  0.26837981  0.05349012    -0.70400
O20         O  0.45938729  0.20699783  0.48235950    -0.61600
O21         O  0.47116154  0.21334300  0.04877674    -0.74100
O22         O  0.45917468  0.26268507  0.48456642    -0.72900
Cu23       Cu  0.00939186  0.25830089  0.01234629     1.04600
Cu24       Cu  0.46622684  0.24007075  0.01732440     1.04300
C25         C  0.48282804  0.28345697  0.47062945     0.93400
C26         C  0.49639269  0.21694342  0.05492173     0.92500
C27         C  0.48304482  0.21071452  0.46715207     0.84700
C28         C  0.49525070  0.28976689  0.06093967     0.90900
O29         O  0.27769226  0.03319618  0.03124024    -0.72800
O30         O  0.23578323  0.02951088  0.45145671    -0.73800
O31         O  0.22019604  0.02730511  0.02483680    -0.62400
O32         O  0.28983979  0.03139019  0.46036793    -0.70800
O33         O  0.26451166  0.48554407  0.46745751    -0.70400
O34         O  0.20249141  0.47823153  0.02721813    -0.61600
O35         O  0.20846765  0.47974994  0.46054466    -0.74100
O36         O  0.25814704  0.48232621  0.03616989    -0.72900
Cu37       Cu  0.25937343  0.03337862  0.49039608     1.04600
Cu38       Cu  0.23456050  0.47847436  0.99743025     1.04300
C39         C  0.27710326  0.50773519  0.04614577     0.93400
C40         C  0.21160952  0.50331317  0.44650556     0.92500
C41         C  0.20258345  0.50212179  0.03600709     0.84700
C42         C  0.28424484  0.51056185  0.45522517     0.90900
C43         C  0.48828182  0.40869790  0.29912226     0.86600
C44         C  0.01343072  0.44057237  0.29580476    -0.53600
C45         C  0.02032116  0.45304705  0.26513951     0.09500
C46         C  0.49698192  0.43599280  0.24275395     0.20500
C47         C  0.46278558  0.41332226  0.29085805    -0.54400
C48         C  0.46665373  0.42708324  0.26111767     0.09600
C49         C  0.49283284  0.39225730  0.26997002    -0.53900
C50         C  0.49693970  0.40612945  0.24052706     0.10200
H51         H  0.02706950  0.45154236  0.31586472     0.14700
H52         H  0.50033141  0.44736289  0.21877675     0.00500
H53         H  0.44279269  0.40479094  0.30620576     0.15000
H54         H  0.49123970  0.37049333  0.27233340     0.14800
C55         C  0.48827508  0.09406602  0.28901039     0.86600
C56         C  0.46308162  0.06409168  0.28000421    -0.53600
C57         C  0.46851735  0.05326390  0.25130752     0.09500
C58         C  0.49982341  0.07390733  0.23463939     0.20500
C59         C  0.01104577  0.08295510  0.29585900    -0.54400
C60         C  0.01843864  0.07770287  0.26499406     0.09600
C61         C  0.49468670  0.11434223  0.25892075    -0.53900
C62         C  0.50034401  0.10385175  0.23061552     0.10200
H63         H  0.44245515  0.05313774  0.29416051     0.14700
H64         H  0.50445528  0.06537417  0.21146826     0.00500
H65         H  0.02413354  0.08497925  0.31632345     0.15000
H66         H  0.49303509  0.13458962  0.25969598     0.14800
C67         C  0.10127769  0.11510480  0.27407366     0.86600
C68         C  0.07043521  0.11073780  0.27577011    -0.53600
C69         C  0.05079043  0.08810662  0.25754373     0.09500
C70         C  0.06594795  0.07369955  0.23571330     0.20500
C71         C  0.09739255  0.08424502  0.28078603    -0.54400
C72         C  0.08073555  0.06245805  0.25973135     0.09600
C73         C  0.11120765  0.12187344  0.23830187    -0.53900
C74         C  0.09280787  0.10073048  0.21798441     0.10200
H75         H  0.06413699  0.12411511  0.29104611     0.14700
H76         H  0.05118836  0.05646554  0.21915104     0.00500
H77         H  0.10858911  0.08108573  0.30041477     0.15000
H78         H  0.13136587  0.14153630  0.22965544     0.14800
C79         C  0.10707169  0.00385682  0.26689228     0.86600
C80         C  0.10433067  0.03161909  0.27358077    -0.53600
C81         C  0.08347362  0.03436378  0.25707698     0.09500
C82         C  0.06642673  0.00718925  0.23488247     0.20500
C83         C  0.07315936  0.47364172  0.27373917    -0.54400
C84         C  0.05214638  0.47582670  0.25721866     0.09600
C85         C  0.11200789  0.00399786  0.23014326    -0.53900
C86         C  0.09089810  0.00532559  0.21313305     0.10200
H87         H  0.11900437  0.04799879  0.28975889     0.14700
H88         H  0.04931970  0.00827519  0.22105466     0.00500
H89         H  0.06768916  0.45506857  0.29007390     0.15000
H90         H  0.13015960  0.00205988  0.21841835     0.14800
C91         C  0.39840235  0.01137795  0.20696113     0.86600
C92         C  0.43103532  0.03416811  0.20988943    -0.53600
C93         C  0.44353256  0.02827528  0.23544997     0.09500
C94         C  0.42213190  0.99874765  0.25431216     0.20500
C95         C  0.39600418  0.48171947  0.21053320    -0.54400
C96         C  0.40792883  0.47447960  0.23538998     0.09600
C97         C  0.38373737  0.00985649  0.24066003    -0.53900
C98         C  0.39580407  0.00312060  0.26537936     0.10200
H99         H  0.44229064  0.05429303  0.19514372     0.14700
H100        H  0.43216600  0.99372023  0.27471440     0.00500
H101        H  0.38586950  0.46772901  0.19025693     0.15000
H102        H  0.36545487  0.01424058  0.24471984     0.14800
C103        C  0.39560844  0.39555140  0.21733345     0.86600
C104        C  0.39558952  0.42472868  0.21255525    -0.53600
C105        C  0.40741109  0.44495643  0.23665953     0.09500
C106        C  0.41894524  0.43325886  0.26386526     0.20500
C107        C  0.42809803  0.40489741  0.22109695    -0.54400
C108        C  0.44043948  0.42449975  0.24579607     0.09600
C109        C  0.38052705  0.38378979  0.25097546    -0.53900
C110        C  0.39260557  0.40304311  0.27547246     0.10200
H111        H  0.38647873  0.42812161  0.19111174     0.14700
H112        H  0.42883676  0.44881122  0.28398757     0.00500
H113        H  0.43936481  0.39487509  0.20773404     0.15000
H114        H  0.36282055  0.36109141  0.25538846     0.14800
C115        C  0.33206615  0.02741706  0.09997792     0.20500
C116        C  0.36006086  0.04337713  0.11282193    -0.39400
C117        C  0.36499221  0.02957756  0.13950566     0.19400
C118        C  0.34224752  0.50224596  0.15782149     0.22100
C119        C  0.31418463  0.48719354  0.14583639    -0.39900
C120        C  0.31071633  0.49886168  0.11688626     0.20900
N121        N  0.32169173  0.03512736  0.07456756    -0.33200
C122        C  0.29553523  0.50945419  0.07272120    -0.10700
C123        C  0.28642903  0.48918255  0.09879517    -0.29600
N124        N  0.35087503  0.49500149  0.18461328    -0.46200
C125        C  0.38097708  0.01503312  0.18083992    -0.05400
C126        C  0.38951312  0.03811918  0.15764845    -0.22800
H127        H  0.37673654  0.06474555  0.10270267     0.19000
H128        H  0.29635835  0.46768144  0.15814206     0.17800
H129        H  0.26491754  0.47005504  0.10388063     0.14100
H130        H  0.41058094  0.05816462  0.15435654     0.13900
H131        H  0.33283006  0.05447784  0.06002096     0.32100
H132        H  0.33791215  0.47702848  0.20059980     0.34900
C133        C  0.33164696  0.99155487  0.39295606     0.20500
C134        C  0.33836124  0.97392764  0.37169690    -0.39400
C135        C  0.35906082  0.98932065  0.34580744     0.19400
C136        C  0.37154390  0.01981201  0.34120465     0.22100
C137        C  0.36514632  0.03743423  0.36258702    -0.39900
C138        C  0.34487235  0.02215263  0.38866474     0.20900
N139        N  0.30686288  0.48646242  0.42058638    -0.33200
C140        C  0.30598542  0.51118351  0.43054983    -0.10700
C141        C  0.32618453  0.53621958  0.41212247    -0.29600
N142        N  0.38744175  0.02862372  0.31274094    -0.46200
C143        C  0.38591576  0.00381555  0.29943637    -0.05400
C144        C  0.36831568  0.97881794  0.31923912    -0.22800
H145        H  0.32740245  0.94991456  0.37433584     0.19000
H146        H  0.37432044  0.06115248  0.35841053     0.17800
H147        H  0.32964282  0.55868705  0.41378746     0.14100
H148        H  0.35993490  0.45852720  0.32085933     0.13900
H149        H  0.29357252  0.46465412  0.42946232     0.32100
H150        H  0.39707180  0.04990935  0.30200502     0.34900
C151        C  0.14282075  0.48286564  0.32868480     0.20500
C152        C  0.14413659  0.46701255  0.35564982    -0.39400
C153        C  0.16648978  0.48344296  0.37665933     0.19400
C154        C  0.18599875  0.51342807  0.37124212     0.22100
C155        C  0.19036573  0.03279665  0.33962245    -0.39900
C156        C  0.16739918  0.01693551  0.31895303     0.20900
N157        N  0.12614366  0.97769885  0.30346641    -0.33200
C158        C  0.13053608  0.00222022  0.28627448    -0.10700
C159        C  0.15684123  0.02695476  0.29467092    -0.29600
N160        N  0.20412328  0.52434261  0.39571569    -0.46200
C161        C  0.19627504  0.50110402  0.41674735    -0.05400
C162        C  0.17296597  0.47514362  0.40559443    -0.22800
H163        H  0.12814516  0.44386865  0.36063679     0.19000
H164        H  0.20463119  0.05660613  0.33685911     0.17800
H165        H  0.16557749  0.04982261  0.28646187     0.14100
H166        H  0.16202856  0.45328164  0.41727177     0.13900
H167        H  0.10855454  0.95607818  0.30303496     0.32100
H168        H  0.22704728  0.04844275  0.39294576     0.34900
C169        C  0.10705486  0.48257003  0.13610195     0.20500
C170        C  0.11751721  0.46626657  0.11760164    -0.39400
C171        C  0.13955645  0.48236321  0.09315872     0.19400
C172        C  0.14831338  0.01384998  0.08656446     0.22100
C173        C  0.13837986  0.03071944  0.10482328    -0.39900
C174        C  0.11633226  0.01508993  0.12949370     0.20900
N175        N  0.09122606  0.47393214  0.16475425    -0.33200
C176        C  0.09150621  0.00182191  0.17750149    -0.10700
C177        C  0.10730224  0.02593927  0.15588692    -0.29600
N178        N  0.17170710  0.02416989  0.06499379    -0.46200
C179        C  0.17793571  0.49999190  0.05766915    -0.05400
C180        C  0.15671865  0.47398618  0.07400270    -0.22800
H181        H  0.11061637  0.44322196  0.12348375     0.19000
H182        H  0.14878349  0.05468459  0.10187046     0.17800
H183        H  0.11570583  0.04901445  0.16132587     0.14100
H184        H  0.15514255  0.45223039  0.07339335     0.13900
H185        H  0.08440818  0.45371116  0.17704640     0.32100
H186        H  0.18534738  0.04628234  0.05730094     0.34900
C187        C  0.00532961  0.36980215  0.16872141     0.20500
C188        C  0.02069569  0.36597321  0.14155317    -0.39400
C189        C  0.00509362  0.33957910  0.12437886     0.19400
C190        C  0.48162652  0.32723008  0.12789073     0.22100
C191        C  0.46511806  0.33062613  0.15403218    -0.39900
C192        C  0.48024088  0.35583903  0.17287144     0.20900
N193        N  0.01523801  0.39276762  0.18926350    -0.33200
C194        C  0.49561767  0.39060960  0.20977873    -0.10700
C195        C  0.47114795  0.36445681  0.20099502    -0.29600
N196        N  0.47243188  0.30457769  0.10715735    -0.46200
C197        C  0.49615945  0.30996240  0.08720207    -0.05400
C198        C  0.01333523  0.32910362  0.09695846    -0.22800
H199        H  0.04312214  0.38235409  0.13428710     0.19000
H200        H  0.44229048  0.31443964  0.15973037     0.17800
H201        H  0.44984780  0.35280054  0.21408097     0.14100
H202        H  0.03440368  0.33973783  0.08331111     0.13900
H203        H  0.03606896  0.41152924  0.18840613     0.32100
H204        H  0.45133911  0.28623421  0.10696961     0.34900
C205        C  0.99666771  0.34603113  0.41481955     0.20500
C206        C  0.01258497  0.37279741  0.39700470    -0.39400
C207        C  0.99705220  0.37864370  0.37420816     0.19400
C208        C  0.46933960  0.35829049  0.36871362     0.22100
C209        C  0.45152675  0.33380806  0.38991654    -0.39900
C210        C  0.46662686  0.32464732  0.41037171     0.20900
N211        N  0.00704717  0.33502341  0.43687915    -0.33200
C212        C  0.48175577  0.30337026  0.44560832    -0.10700
C213        C  0.45646864  0.30181872  0.43361384    -0.29600
N214        N  0.46079113  0.37064362  0.34575562    -0.46200
C215        C  0.48598823  0.39263564  0.33084942    -0.05400
C216        C  0.00713504  0.40126433  0.35144536    -0.22800
H217        H  0.03569134  0.38766866  0.40003916     0.19000
H218        H  0.42776961  0.32261286  0.39028163     0.17800
H219        H  0.43381325  0.28605384  0.44075312     0.14100
H220        H  0.02979604  0.41845476  0.34738217     0.13900
H221        H  0.02850538  0.34492604  0.44441826     0.32100
H222        H  0.43928209  0.36353038  0.33958079     0.34900
C223        C  0.99940226  0.16988940  0.40991103     0.20500
C224        C  0.01551385  0.15933930  0.39128083    -0.39400
C225        C  0.99925881  0.13566952  0.37097691     0.19400
C226        C  0.47023519  0.12385175  0.36220935     0.22100
C227        C  0.45321896  0.12692903  0.38833802    -0.39900
C228        C  0.46766005  0.15298009  0.40668860     0.20900
N229        N  0.00998431  0.19262680  0.43051491    -0.35000
C230        C  0.48207137  0.19060116  0.44070172    -0.10700
C231        C  0.45786898  0.16340224  0.43312188    -0.29600
N232        N  0.46187884  0.10180102  0.34033379    -0.46200
C233        C  0.48587768  0.10974545  0.31951597    -0.05400
C234        C  0.00884560  0.12262347  0.34784902    -0.22800
H235        H  0.03914500  0.16932808  0.39192946     0.19000
H236        H  0.43044090  0.11047674  0.39378552     0.17800
H237        H  0.43614083  0.15271921  0.44530233     0.14100
H238        H  0.03156664  0.12917036  0.34113316     0.13900
H239        H  0.03186481  0.20570989  0.43621140     0.32100
H240        H  0.44113064  0.08310936  0.33928776     0.34900
C241        C  0.51462278  0.14712883  0.15746546     0.20500
C242        C  0.01873377  0.16010823  0.13716463    -0.39400
C243        C  0.51506782  0.17664133  0.11283142     0.19400
C244        C  0.48462798  0.16134502  0.11427080     0.22100
C245        C  0.46803715  0.13874973  0.13758377    -0.39900
C246        C  0.48420078  0.13246882  0.15915063     0.20900
N247        N  0.01537731  0.13286822  0.18775124    -0.33200
C248        C  0.50015755  0.11714365  0.19909181    -0.10700
C249        C  0.47471678  0.11383512  0.18608500    -0.29600
N250        N  0.47431708  0.17300465  0.09287301    -0.46200
C251        C  0.49826546  0.19626463  0.07798593    -0.05400
C252        C  0.01051726  0.18731388  0.09146272    -0.22800
H253        H  0.04102297  0.16558273  0.12956730     0.19000
H254        H  0.44424936  0.12757360  0.13951752     0.17800
H255        H  0.45234685  0.10120982  0.19623440     0.14100
H256        H  0.03160258  0.19747687  0.07784454     0.13900
H257        H  0.03605039  0.13427713  0.18641340     0.32100
H258        H  0.45227981  0.16637760  0.08967374     0.34900
C259        C  0.34226742  0.34895522  0.16134872     0.20500
C260        C  0.31593851  0.33862578  0.14589669    -0.39400
C261        C  0.31239077  0.32026980  0.11946536     0.19400
C262        C  0.33321190  0.31218210  0.10945184     0.22100
C263        C  0.35988499  0.32278353  0.12492702    -0.39900
C264        C  0.36376190  0.34186039  0.15118035     0.20900
N265        N  0.35099500  0.36774058  0.18601472    -0.33200
C266        C  0.37864827  0.37368065  0.19157472    -0.10700
C267        C  0.38745351  0.35765803  0.17040902    -0.29600
N268        N  0.32459944  0.29501033  0.08305198    -0.46200
C269        C  0.29845123  0.29277228  0.07606549    -0.05400
C270        C  0.29016762  0.30817964  0.09834487    -0.22800
H271        H  0.29968315  0.34508918  0.15343548     0.19000
H272        H  0.37662304  0.31722634  0.11663383     0.17800
H273        H  0.40829800  0.35784637  0.16886345     0.14100
H274        H  0.27069367  0.31060526  0.09872056     0.13900
H275        H  0.33906023  0.37680111  0.19791718     0.32100
H276        H  0.33617372  0.28615049  0.07001283     0.34900
C277        C  0.36249740  0.37880958  0.35669470     0.20500
C278        C  0.34336495  0.37473058  0.38401059    -0.39400
C279        C  0.33449210  0.34875113  0.40297578     0.19400
C280        C  0.34419479  0.32859718  0.39547981     0.22100
C281        C  0.36317581  0.33262829  0.36828629    -0.39900
C282        C  0.37173484  0.35829829  0.34924357     0.20900
N283        N  0.37113280  0.39945766  0.33248282    -0.33200
C284        C  0.38550889  0.39159641  0.30945195    -0.10700
C285        C  0.38630821  0.36613471  0.31917317    -0.29600
N286        N  0.33058291  0.30441534  0.41527013    -0.46200
C287        C  0.31168501  0.30888566  0.43523556    -0.05400
C288        C  0.31367474  0.33641641  0.42859111    -0.22800
H289        H  0.33477286  0.38977790  0.38910342     0.19000
H290        H  0.36951188  0.31612464  0.36141683     0.17800
H291        H  0.39439555  0.35364524  0.30482816     0.14100
H292        H  0.30045136  0.34537359  0.43972446     0.13900
H293        H  0.36537292  0.41611377  0.33046560     0.32100
H294        H  0.33270614  0.28527544  0.41394343     0.34900
C295        C  0.16707003  0.18584859  0.38623400     0.20500
C296        C  0.14149840  0.17895084  0.37051296    -0.39400
C297        C  0.13818176  0.16411904  0.34113211     0.19400
C298        C  0.15874072  0.15672277  0.32827055     0.22100
C299        C  0.18422486  0.16323755  0.34427603    -0.39900
C300        C  0.18752476  0.17803984  0.37384303     0.20900
N301        N  0.17539241  0.20029746  0.41420450    -0.33200
C302        C  0.20126047  0.20161167  0.41991444    -0.10700
C303        C  0.20949751  0.18771945  0.39545932    -0.29600
N304        N  0.14932298  0.14092732  0.30118773    -0.46200
C305        C  0.12215522  0.13741830  0.29725583    -0.05400
C306        C  0.11485199  0.15227344  0.32153585    -0.22800
H307        H  0.12515061  0.18436892  0.38066987     0.19000
H308        H  0.20005301  0.15688219  0.33467458     0.17800
H309        H  0.22920616  0.18569673  0.39337170     0.14100
H310        H  0.09449417  0.15268077  0.32626343     0.13900
H311        H  0.16419822  0.20884307  0.42851745     0.32100
H312        H  0.15968650  0.13107070  0.28764081     0.34900
C313        C  0.11594180  0.12937743  0.13787281     0.20500
C314        C  0.12134102  0.15074971  0.11351119    -0.39400
C315        C  0.14779424  0.16099735  0.09447062     0.19400
C316        C  0.16738902  0.15071119  0.09919904     0.22100
C317        C  0.16220750  0.12969703  0.12380974    -0.39900
C318        C  0.13580662  0.11951045  0.14286390     0.20900
N319        N  0.09478901  0.11959958  0.16218260    -0.33200
C320        C  0.10139178  0.10370872  0.18301378    -0.10700
C321        C  0.12685410  0.10332461  0.17166245    -0.29600
N322        N  0.19174747  0.16528409  0.07930206    -0.46200
C323        C  0.18775413  0.18523305  0.06205237    -0.05400
C324        C  0.16060684  0.18320000  0.07080163    -0.22800
H325        H  0.10672838  0.15981430  0.11064439     0.19000
H326        H  0.17822346  0.12287299  0.12881136     0.17800
H327        H  0.13951518  0.09602076  0.18515269     0.14100
H328        H  0.15185507  0.19680937  0.06178040     0.13900
H329        H  0.07916134  0.12652900  0.16650447     0.32100
H330        H  0.21041177  0.16270209  0.07848557     0.34900
O331        O  0.26076199  0.27833694  0.53837440    -0.72800
O332        O  0.21425329  0.23984026  0.96240835    -0.73800
O333        O  0.20568932  0.22677912  0.52949329    -0.62400
O334        O  0.26799394  0.29291663  0.96980342    -0.70800
O335        O  0.29185291  0.26721793  0.96412381    -0.70400
O336        O  0.22960288  0.20100825  0.52721572    -0.61600
O337        O  0.23804321  0.21401645  0.95807649    -0.74100
O338        O  0.28542961  0.25342855  0.53278479    -0.72900
Cu339      Cu  0.23662051  0.25882278  0.50017414     1.04600
Cu340      Cu  0.26291415  0.23505446  0.99561776     1.04300
C341        C  0.28092630  0.27300814  0.54708919     0.93400
C342        C  0.21891731  0.22030342  0.94806694     0.92500
C343        C  0.20773675  0.20410641  0.53788867     0.84700
C344        C  0.28899760  0.28971851  0.95667752     0.90900
O345        O  0.00653125  0.28520461  0.97935378    -0.72800
O346        O  0.02079024  0.23988749  0.54207273    -0.73800
O347        O  0.00527453  0.22955084  0.97701844    -0.62400
O348        O  0.01956625  0.29468199  0.54490202    -0.70800
O349        O  0.46450938  0.26355584  0.55423996    -0.70400
O350        O  0.46524675  0.21330227  0.98084183    -0.61600
O351        O  0.46464397  0.20860521  0.55118719    -0.74100
O352        O  0.46469456  0.26848006  0.98500511    -0.72900
Cu353      Cu  0.01824046  0.26721330  0.50904146     1.04600
Cu354      Cu  0.46023177  0.23467017  0.51831599     1.04300
C355        C  0.48805029  0.28986569  0.97138655     0.93400
C356        C  0.48966286  0.21176192  0.55755734     0.92500
C357        C  0.48885062  0.21662702  0.96598558     0.84700
C358        C  0.48957813  0.28411307  0.56237368     0.90900
O359        O  0.28219999  0.03376345  0.52876433    -0.72800
O360        O  0.22864159  0.02554231  0.95581591    -0.73800
O361        O  0.22690391  0.03204380  0.52090513    -0.62400
O362        O  0.28404266  0.03073926  0.96271104    -0.70800
O363        O  0.26795671  0.48176143  0.96727377    -0.70400
O364        O  0.20070966  0.48121306  0.52946061    -0.61600
O365        O  0.21271285  0.47845370  0.95840772    -0.74100
O366        O  0.25747112  0.48782141  0.53598755    -0.72900
Cu367      Cu  0.25328242  0.03090145  0.99373292     1.04600
Cu368      Cu  0.23207558  0.48191829  0.49861221     1.04300
C369        C  0.27623553  0.51353011  0.54548780     0.93400
C370        C  0.21625373  0.50262116  0.94547031     0.92500
C371        C  0.20041604  0.50495376  0.53793536     0.84700
C372        C  0.28825996  0.50690692  0.95583110     0.90900
C373        C  0.48776932  0.41075596  0.80020378     0.86600
C374        C  0.01440078  0.43798384  0.79861235    -0.53600
C375        C  0.02161160  0.45359114  0.76965937     0.09500
C376        C  0.49656593  0.43368666  0.74122360     0.20500
C377        C  0.46253066  0.41517512  0.79012347    -0.54400
C378        C  0.46657480  0.42673919  0.75905732     0.09600
C379        C  0.49157166  0.39181954  0.77327453    -0.53900
C380        C  0.49569301  0.40335136  0.74245867     0.10200
H381        H  0.02715037  0.44633283  0.81992143     0.14700
H382        H  0.49994530  0.44324330  0.71620188     0.00500
H383        H  0.44255762  0.40801325  0.80535346     0.15000
H384        H  0.48955781  0.37015450  0.77815425     0.14800
C385        C  0.48877706  0.09257427  0.79410385     0.86600
C386        C  0.46209534  0.06391084  0.78474001    -0.53600
C387        C  0.46632390  0.05324413  0.75539787     0.09500
C388        C  0.49748831  0.07283488  0.73805570     0.20500
C389        C  0.01005363  0.08454173  0.79219959    -0.54400
C390        C  0.01881207  0.07702108  0.76331831     0.09600
C391        C  0.49586543  0.11407282  0.76495480    -0.53900
C392        C  0.49971084  0.10360386  0.73562129     0.10200
H393        H  0.44139663  0.05371275  0.79915041     0.14700
H394        H  0.50074207  0.06422103  0.71426448     0.00500
H395        H  0.02117179  0.08712564  0.81451981     0.15000
H396        H  0.49514117  0.13476520  0.76706072     0.14800
C397        C  0.10156472  0.11166816  0.77604085     0.86600
C398        C  0.07054896  0.10700423  0.77849941    -0.53600
C399        C  0.05092975  0.08524448  0.75927159     0.09500
C400        C  0.06597565  0.07130608  0.73681193     0.20500
C401        C  0.09773473  0.08068378  0.78157179    -0.54400
C402        C  0.08039380  0.05921029  0.76046667     0.09600
C403        C  0.11129019  0.11916972  0.74030659    -0.53900
C404        C  0.09278556  0.09868759  0.71953885     0.10200
H405        H  0.06457503  0.12026323  0.79431414     0.14700
H406        H  0.05116707  0.05458678  0.71985361     0.00500
H407        H  0.10950228  0.07735211  0.80038250     0.15000
H408        H  0.13150782  0.13892306  0.73198567     0.14800
C409        C  0.10327526  0.99810706  0.76752475     0.86600
C410        C  0.09907158  0.02459861  0.77687255    -0.53600
C411        C  0.08106935  0.02997166  0.75810473     0.09500
C412        C  0.06668705  0.00543975  0.73229008     0.20500
C413        C  0.07468066  0.47794151  0.78048180    -0.54400
C414        C  0.05289103  0.47829676  0.76350633     0.09600
C415        C  0.11262814  0.00288512  0.73140103    -0.53900
C416        C  0.09352301  0.00612674  0.71259738     0.10200
H417        H  0.11105812  0.03835299  0.79650429     0.14700
H418        H  0.05131164  0.00825064  0.71703986     0.00500
H419        H  0.07059580  0.46054323  0.79795357     0.15000
H420        H  0.13237768  0.00301174  0.72132312     0.14800
C421        C  0.39627390  0.01056408  0.71061977     0.86600
C422        C  0.42840488  0.03449168  0.71446229    -0.53600
C423        C  0.44086106  0.02872965  0.74012099     0.09500
C424        C  0.42000946  0.99902025  0.75885351     0.20500
C425        C  0.39725891  0.48254858  0.70538030    -0.54400
C426        C  0.40924845  0.47512035  0.73008541     0.09600
C427        C  0.38071558  0.00827485  0.74387970    -0.53900
C428        C  0.39296169  0.00243177  0.76916420     0.10200
H429        H  0.43914389  0.05538495  0.70067846     0.14700
H430        H  0.43005871  0.99456092  0.77965871     0.00500
H431        H  0.38728591  0.46868256  0.68496309     0.15000
H432        H  0.36212261  0.01224688  0.74731110     0.14800
C433        C  0.39835039  0.39696245  0.71052691     0.86600
C434        C  0.39924102  0.42661608  0.70569820    -0.53600
C435        C  0.40926021  0.44579750  0.73092333     0.09500
C436        C  0.41877056  0.43285598  0.75902873     0.20500
C437        C  0.43014044  0.40541621  0.71677376    -0.54400
C438        C  0.44093733  0.42410967  0.74251664     0.09600
C439        C  0.38108767  0.38417537  0.74308795    -0.53900
C440        C  0.39163204  0.40251203  0.76855520     0.10200
H441        H  0.39212802  0.43119300  0.68332542     0.14700
H442        H  0.42741805  0.44763582  0.78002775     0.00500
H443        H  0.44192766  0.39546036  0.70422954     0.15000
H444        H  0.36293867  0.36153548  0.74611109     0.14800
C445        C  0.33288172  0.02533743  0.59974372     0.20500
C446        C  0.36046445  0.04109306  0.61339156    -0.39400
C447        C  0.36443774  0.02747706  0.64083785     0.19400
C448        C  0.34407183  0.50344923  0.65163293     0.22100
C449        C  0.31723570  0.48736054  0.63732745    -0.39900
C450        C  0.31241566  0.50187267  0.61184201     0.20900
N451        N  0.32339860  0.03340561  0.57385238    -0.33200
C452        C  0.29527263  0.51543518  0.57163304    -0.10700
C453        C  0.28868626  0.49190683  0.59302286    -0.29600
N454        N  0.35314964  0.49416811  0.67651408    -0.46200
C455        C  0.37915248  0.01362548  0.68374003    -0.05400
C456        C  0.38831360  0.03632669  0.66000071    -0.22800
H457        H  0.37750132  0.06235145  0.60342645     0.19000
H458        H  0.30116601  0.46502175  0.64555013     0.17800
H459        H  0.26915117  0.47024259  0.59444868     0.14100
H460        H  0.40943778  0.05632665  0.65693611     0.13900
H461        H  0.33515999  0.05279131  0.55947316     0.32100
H462        H  0.34133100  0.47370774  0.68904578     0.34900
C463        C  0.33107583  0.99508066  0.89711016     0.20500
C464        C  0.34256815  0.97906876  0.87967934    -0.39400
C465        C  0.36024237  0.99339373  0.85134065     0.19400
C466        C  0.36560544  0.02130112  0.84119672     0.22100
C467        C  0.35445635  0.03735057  0.85872037    -0.39900
C468        C  0.33719432  0.02326173  0.88706422     0.20900
N469        N  0.31355148  0.48428046  0.92212573    -0.33200
C470        C  0.31091768  0.50822175  0.93167351    -0.10700
C471        C  0.32989224  0.53339577  0.91267529    -0.29600
N472        N  0.37983922  0.02862415  0.81177201    -0.46200
C473        C  0.38373651  0.00537651  0.80286537    -0.05400
C474        C  0.37227086  0.98311124  0.82711099    -0.22800
H475        H  0.33720315  0.95670701  0.88690233     0.19000
H476        H  0.35800617  0.05877982  0.85018619     0.17800
H477        H  0.33154022  0.55517634  0.91355464     0.14100
H478        H  0.36605900  0.45880455  0.81922891     0.13900
H479        H  0.30122646  0.46242799  0.93122552     0.32100
H480        H  0.38505615  0.04757563  0.79765796     0.34900
C481        C  0.14689964  0.48719900  0.82931173     0.20500
C482        C  0.15006583  0.46995952  0.85345484    -0.39400
C483        C  0.17144401  0.48581969  0.87571189     0.19400
C484        C  0.18835904  0.51652116  0.87403857     0.22100
C485        C  0.18486258  0.02541143  0.84207410    -0.39900
C486        C  0.16096468  0.00967412  0.82256152     0.20900
N487        N  0.11725700  0.97197051  0.81033302    -0.33200
C488        C  0.12452008  0.99533363  0.78950729    -0.10700
C489        C  0.15219125  0.01898696  0.79599347    -0.29600
N490        N  0.20618721  0.52637114  0.89883958    -0.46200
C491        C  0.20074228  0.50175110  0.91632621    -0.05400
C492        C  0.17923021  0.47601407  0.90262306    -0.22800
H493        H  0.13616659  0.44605010  0.85547349     0.19000
H494        H  0.20128716  0.04832817  0.83663699     0.17800
H495        H  0.16300395  0.04106383  0.78483473     0.14100
H496        H  0.17031550  0.45326153  0.91134768     0.13900
H497        H  0.09786148  0.95166586  0.81264345     0.32100
H498        H  0.22310311  0.04161480  0.89394792     0.34900
C499        C  0.10695149  0.48401829  0.64091219     0.20500
C500        C  0.11752432  0.46809190  0.62199667    -0.39400
C501        C  0.13915125  0.48454213  0.59741180     0.19400
C502        C  0.16034288  0.02387740  0.58837042     0.22100
C503        C  0.15502300  0.04111270  0.61151679    -0.39900
C504        C  0.13011247  0.02562234  0.63298479     0.20900
N505        N  0.09137069  0.47501469  0.66960911    -0.33200
C506        C  0.09931810  0.00912835  0.67681617    -0.10700
C507        C  0.12261829  0.03457079  0.66188222    -0.29600
N508        N  0.18426040  0.03286076  0.56777926    -0.46200
C509        C  0.17650753  0.50259012  0.56078535    -0.05400
C510        C  0.15584280  0.47640535  0.57722067    -0.22800
H511        H  0.11081347  0.44501717  0.62744947     0.19000
H512        H  0.17027247  0.06455961  0.61406090     0.17800
H513        H  0.13591767  0.05534315  0.67334513     0.14100
H514        H  0.15421118  0.45464818  0.57578242     0.13900
H515        H  0.08598349  0.45532530  0.68206892     0.32100
H516        H  0.20203396  0.05441801  0.56492483     0.34900
C517        C  0.01218108  0.37704747  0.66611079     0.20500
C518        C  0.02890717  0.37264062  0.64086765    -0.39400
C519        C  0.01335284  0.34750055  0.62185683     0.19400
C520        C  0.47918278  0.31851990  0.63464095     0.22100
C521        C  0.46444959  0.32075015  0.66333672    -0.39900
C522        C  0.47904525  0.34756825  0.68001331     0.20900
N523        N  0.02179437  0.39837817  0.68857280    -0.33200
C524        C  0.49397792  0.38536695  0.71343057    -0.10700
C525        C  0.47110850  0.35660725  0.70870242    -0.29600
N526        N  0.46964244  0.29563015  0.61406883    -0.46200
C527        C  0.49126121  0.30342309  0.59010546    -0.05400
C528        C  0.02269990  0.33644367  0.59584059    -0.22800
H529        H  0.05227692  0.38748062  0.63655739     0.19000
H530        H  0.44312015  0.30292149  0.67201105     0.17800
H531        H  0.45139911  0.34399443  0.72432436     0.14100
H532        H  0.04478386  0.34565673  0.58477747     0.13900
H533        H  0.04329309  0.41474159  0.69134108     0.32100
H534        H  0.44966363  0.27578155  0.61629341     0.34900
C535        C  0.99730198  0.33596572  0.90835282     0.20500
C536        C  0.01476704  0.35725654  0.88421443    -0.39400
C537        C  0.00012124  0.36768484  0.86524114     0.19400
C538        C  0.46986033  0.36193319  0.87086053     0.22100
C539        C  0.45361064  0.33537334  0.88948601    -0.39900
C540        C  0.46919634  0.32947866  0.91253663     0.20900
N541        N  0.00609833  0.32223723  0.92899587    -0.33200
C542        C  0.48591185  0.31048325  0.94835446    -0.10700
C543        C  0.46056187  0.30518275  0.93321668    -0.29600
N544        N  0.46109838  0.37138848  0.84536407    -0.46200
C545        C  0.48499854  0.39684076  0.83367377    -0.05400
C546        C  0.01068103  0.38731478  0.83928744    -0.22800
H547        H  0.03805554  0.36488967  0.88020150     0.19000
H548        H  0.43078155  0.32000703  0.88565279     0.17800
H549        H  0.43903165  0.28567044  0.93604051     0.14100
H550        H  0.03294493  0.39839668  0.82845693     0.13900
H551        H  0.02740927  0.32556838  0.93037985     0.32100
H552        H  0.44070380  0.36016095  0.83517295     0.34900
C553        C  0.99492422  0.17116321  0.90311516     0.20500
C554        C  0.01247908  0.16683151  0.87916617    -0.39400
C555        C  0.99772305  0.14251336  0.85918406     0.19400
C556        C  0.47207683  0.12604467  0.86454337     0.22100
C557        C  0.45508512  0.13380005  0.88618117    -0.39900
C558        C  0.47099399  0.15813971  0.90629398     0.20900
N559        N  0.00393025  0.19308807  0.92468539    -0.35000
C560        C  0.48735830  0.19544184  0.94065785    -0.10700
C561        C  0.46164233  0.17194231  0.92932725    -0.29600
N562        N  0.46261933  0.10503795  0.84150147    -0.46200
C563        C  0.48730428  0.10735742  0.82573968    -0.05400
C564        C  0.00842568  0.13342190  0.83304067    -0.22800
H565        H  0.03596027  0.18161778  0.87600877     0.19000
H566        H  0.43130891  0.12211999  0.88691984     0.17800
H567        H  0.43918107  0.16591203  0.93678406     0.14100
H568        H  0.03094677  0.14383269  0.82302831     0.13900
H569        H  0.02547636  0.21009792  0.92699762     0.32100
H570        H  0.44087521  0.09116888  0.83583008     0.34900
C571        C  0.50748557  0.14014739  0.65887868     0.20500
C572        C  0.03254866  0.17125380  0.63536623    -0.39400
C573        C  0.50662614  0.16853513  0.61373387     0.19400
C574        C  0.47852609  0.16246077  0.62417468     0.22100
C575        C  0.46402037  0.14545993  0.65247970    -0.39900
C576        C  0.47965406  0.13482720  0.66946688     0.20900
N577        N  0.02583348  0.13873259  0.68289692    -0.33200
C578        C  0.49689002  0.11650704  0.70498969    -0.10700
C579        C  0.47267757  0.11985720  0.69895684    -0.29600
N580        N  0.46885784  0.17640168  0.60494633    -0.46200
C581        C  0.49103645  0.19195696  0.58228851    -0.05400
C582        C  0.02545940  0.20079121  0.59083229    -0.22800
H583        H  0.05631230  0.18211498  0.63313110     0.19000
H584        H  0.44247332  0.14160106  0.66122685     0.17800
H585        H  0.45297176  0.11299260  0.71462482     0.14100
H586        H  0.04782094  0.21619622  0.58219799     0.13900
H587        H  0.04770626  0.14551278  0.68718558     0.32100
H588        H  0.44875973  0.17621373  0.60778842     0.34900
C589        C  0.34663372  0.35198494  0.65302266     0.20500
C590        C  0.31988967  0.34086242  0.63855510    -0.39400
C591        C  0.31543890  0.32095565  0.61370822     0.19400
C592        C  0.33595709  0.31240079  0.60389547     0.22100
C593        C  0.36323057  0.32391854  0.61834668    -0.39900
C594        C  0.36784164  0.34429818  0.64343853     0.20900
N595        N  0.35536872  0.37102869  0.67728291    -0.33200
C596        C  0.38260209  0.37629546  0.68360083    -0.10700
C597        C  0.39141930  0.35997584  0.66289990    -0.29600
N598        N  0.32598568  0.29320455  0.57928584    -0.46200
C599        C  0.29922163  0.29010614  0.57357173    -0.05400
C600        C  0.29202603  0.30706413  0.59458466    -0.22800
H601        H  0.30368613  0.34739697  0.64609440     0.19000
H602        H  0.37955068  0.31760894  0.61060320     0.17800
H603        H  0.41185141  0.35934431  0.66237364     0.14100
H604        H  0.27244892  0.30932785  0.59538182     0.13900
H605        H  0.34335519  0.38006229  0.68906871     0.32100
H606        H  0.33697253  0.28354113  0.56659615     0.34900
C607        C  0.35497692  0.37623894  0.84714059     0.20500
C608        C  0.33425445  0.37154427  0.87293743    -0.39400
C609        C  0.32794213  0.34799310  0.89477279     0.19400
C610        C  0.34116984  0.33039285  0.89111910     0.22100
C611        C  0.36166375  0.33490902  0.86521348    -0.39900
C612        C  0.36801081  0.35846844  0.84348314     0.20900
N613        N  0.36321898  0.39574010  0.82186358    -0.33200
C614        C  0.38170861  0.39040976  0.80213127    -0.10700
C615        C  0.38492032  0.36709865  0.81465159    -0.29600
N616        N  0.33000163  0.30825804  0.91373398    -0.46200
C617        C  0.30931972  0.31159229  0.93178836    -0.05400
C618        C  0.30754864  0.33626813  0.92084994    -0.22800
H619        H  0.32324158  0.38470109  0.87530620     0.19000
H620        H  0.37129881  0.32056951  0.86167333     0.17800
H621        H  0.39674015  0.35676432  0.80316027     0.14100
H622        H  0.29232759  0.34368144  0.92970429     0.13900
H623        H  0.35511704  0.41018714  0.81713913     0.32100
H624        H  0.33513206  0.29111729  0.91576005     0.34900
C625        C  0.16974828  0.19022982  0.88372221     0.20500
C626        C  0.14495126  0.18370976  0.86648331    -0.39400
C627        C  0.14040170  0.16538439  0.83960619     0.19400
C628        C  0.15932800  0.15474662  0.83018851     0.22100
C629        C  0.18415242  0.16118975  0.84750603    -0.39900
C630        C  0.18847014  0.17916608  0.87476950     0.20900
N631        N  0.17822009  0.20625880  0.91081627    -0.33200
C632        C  0.20237676  0.20521632  0.91948502    -0.10700
C633        C  0.20944771  0.18848710  0.89758441    -0.29600
N634        N  0.14898827  0.13625495  0.80512552    -0.46200
C635        C  0.12274062  0.13423237  0.79909886    -0.05400
C636        C  0.11707871  0.15273167  0.81991918    -0.22800
H637        H  0.12977399  0.19155772  0.87406550     0.19000
H638        H  0.19852933  0.15214967  0.84083497     0.17800
H639        H  0.22749019  0.18379957  0.89827789     0.14100
H640        H  0.09800556  0.15578807  0.82188434     0.13900
H641        H  0.16795808  0.21692899  0.92292629     0.32100
H642        H  0.15831720  0.12423265  0.79411692     0.34900
C643        C  0.11448071  0.12643503  0.63836405     0.20500
C644        C  0.11856658  0.14645336  0.61277000    -0.39400
C645        C  0.14509149  0.15721305  0.59345426     0.19400
C646        C  0.16572539  0.14850902  0.59920070     0.22100
C647        C  0.16191591  0.12916130  0.62498259    -0.39900
C648        C  0.13565206  0.11853818  0.64415445     0.20900
N649        N  0.09346078  0.11630869  0.66295562    -0.33200
C650        C  0.10162207  0.10222288  0.68453433    -0.10700
C651        C  0.12792777  0.10359873  0.67359135    -0.29600
N652        N  0.18986653  0.16310251  0.57915672    -0.46200
C653        C  0.18505593  0.18176484  0.56072731    -0.05400
C654        C  0.15728581  0.17871880  0.56877513    -0.22800
H655        H  0.10298040  0.15417485  0.60916594     0.19000
H656        H  0.17885210  0.12384168  0.63066235     0.17800
H657        H  0.14202400  0.09895845  0.68792157     0.14100
H658        H  0.14784767  0.19136130  0.55884405     0.13900
H659        H  0.07663658  0.12165239  0.66668345     0.32100
H660        H  0.20911557  0.16162319  0.57923193     0.34900
O661        O  0.26035803  0.77709969  0.03623988    -0.72800
O662        O  0.21653605  0.73996937  0.46068334    -0.73800
O663        O  0.20705668  0.72444850  0.02600001    -0.62400
O664        O  0.27030122  0.79307093  0.46799564    -0.70800
O665        O  0.29434533  0.76760193  0.46169757    -0.70400
O666        O  0.23236100  0.70010604  0.02258338    -0.61600
O667        O  0.24055996  0.71442128  0.45553827    -0.74100
O668        O  0.28647409  0.75376932  0.02940771    -0.72900
Cu669      Cu  0.23697951  0.75792601  0.99743576     1.04600
Cu670      Cu  0.26563717  0.73516607  0.49309952     1.04300
C671        C  0.28085171  0.77220252  0.04470812     0.93400
C672        C  0.22135895  0.72074633  0.44583440     0.92500
C673        C  0.21010213  0.70222930  0.03385566     0.84700
C674        C  0.29137128  0.79011067  0.45463597     0.90900
O675        O  0.00783178  0.78933844  0.47669745    -0.72800
O676        O  0.02034324  0.74293230  0.04154490    -0.73800
O677        O  0.00929584  0.73493150  0.47273240    -0.62400
O678        O  0.01850673  0.79767971  0.04347630    -0.70800
O679        O  0.46066954  0.76071544  0.05300295    -0.70400
O680        O  0.46493320  0.71102872  0.48025890    -0.61600
O681        O  0.46119342  0.70603149  0.05156539    -0.74100
O682        O  0.46440109  0.76624871  0.48193498    -0.72900
Cu683      Cu  0.01797621  0.77003958  0.00783673     1.04600
Cu684      Cu  0.45622927  0.73162228  0.01795569     1.04300
C685        C  0.48790154  0.78750406  0.46839827     0.93400
C686        C  0.48648005  0.71037323  0.05886201     0.92500
C687        C  0.48870364  0.71443167  0.46569295     0.84700
C688        C  0.48575548  0.78204277  0.05975276     0.90900
O689        O  0.28052629  0.53169014  0.03293674    -0.72800
O690        O  0.22869995  0.52896705  0.45746174    -0.73800
O691        O  0.22378958  0.52752353  0.02623987    -0.62400
O692        O  0.28467730  0.53473693  0.46352189    -0.70800
O693        O  0.26763230  0.98209103  0.46461638    -0.70400
O694        O  0.19970328  0.97807919  0.02778108    -0.61600
O695        O  0.21334834  0.98017874  0.45452173    -0.74100
O696        O  0.25632959  0.98394493  0.03544033    -0.72900
Cu697      Cu  0.25375641  0.53455409  0.49511943     1.04600
Cu698      Cu  0.23141177  0.97825897  0.99752794     1.04300
C699        C  0.27518214  0.00970414  0.04472952     0.93400
C700        C  0.21804039  0.00419881  0.44014353     0.92500
C701        C  0.19949153  0.00203451  0.03557221     0.84700
C702        C  0.28852838  0.00672120  0.45269419     0.90900
C703        C  0.48829239  0.90911902  0.29645209     0.86600
C704        C  0.01621393  0.94308615  0.29685439    -0.53600
C705        C  0.02283533  0.95616460  0.26647527     0.09500
C706        C  0.49665229  0.93251717  0.23772153     0.20500
C707        C  0.46295147  0.91353641  0.28672088    -0.54400
C708        C  0.46680512  0.92528213  0.25577526     0.09600
C709        C  0.49212889  0.89054612  0.26916763    -0.53900
C710        C  0.49604864  0.90239270  0.23854499     0.10200
H711        H  0.03008444  0.95320601  0.31701469     0.14700
H712        H  0.49984275  0.94225079  0.21281387     0.00500
H713        H  0.44314720  0.90641989  0.30216786     0.15000
H714        H  0.49011321  0.86882029  0.27364299     0.14800
C715        C  0.49106618  0.59077470  0.29566123     0.86600
C716        C  0.46464255  0.56197124  0.28638482    -0.53600
C717        C  0.46799627  0.55258140  0.25596927     0.09500
C718        C  0.49840529  0.57348258  0.23761852     0.20500
C719        C  0.01477308  0.58890364  0.28926475    -0.54400
C720        C  0.02271898  0.58068747  0.26027008     0.09600
C721        C  0.49640745  0.61304501  0.26790222    -0.53900
C722        C  0.49974582  0.60392765  0.23760813     0.10200
H723        H  0.44460041  0.55077669  0.30184121     0.14700
H724        H  0.50104962  0.56587485  0.21296949     0.00500
H725        H  0.02677974  0.59249531  0.31108771     0.15000
H726        H  0.49553714  0.63350895  0.27179570     0.14800
C727        C  0.10477747  0.61335068  0.27272787     0.86600
C728        C  0.07456564  0.61046812  0.27348887    -0.53600
C729        C  0.05454913  0.58828275  0.25517390     0.09500
C730        C  0.06871937  0.57252801  0.23415925     0.20500
C731        C  0.09914209  0.58189614  0.28010949    -0.54400
C732        C  0.08188805  0.56020895  0.25903237     0.09600
C733        C  0.11532515  0.61935408  0.23701956    -0.53900
C734        C  0.09657744  0.59860080  0.21658619     0.10200
H735        H  0.06921106  0.62507352  0.28767923     0.14700
H736        H  0.05366097  0.55559322  0.21753759     0.00500
H737        H  0.10960102  0.57832252  0.30020452     0.15000
H738        H  0.13600615  0.63844313  0.22847712     0.14800
C739        C  0.10441446  0.49902280  0.26795046     0.86600
C740        C  0.10202161  0.52690815  0.27474277    -0.53600
C741        C  0.08250769  0.53087674  0.25720334     0.09500
C742        C  0.06554719  0.50406128  0.23432155     0.20500
C743        C  0.07608067  0.97822707  0.27411726    -0.54400
C744        C  0.05429851  0.97951871  0.25826071     0.09600
C745        C  0.11054510  0.49973120  0.23132931    -0.53900
C746        C  0.09025190  0.50176021  0.21342063     0.10200
H747        H  0.11616003  0.54259972  0.29179685     0.14700
H748        H  0.04919004  0.50590621  0.21983207     0.00500
H749        H  0.07144365  0.96017681  0.29088035     0.15000
H750        H  0.12878419  0.49752047  0.22034145     0.14800
C751        C  0.39697138  0.51159535  0.21287761     0.86600
C752        C  0.42969872  0.53427831  0.21549884    -0.53600
C753        C  0.44196626  0.52826582  0.24116435     0.09500
C754        C  0.42027136  0.49932656  0.26086478     0.20500
C755        C  0.39808160  0.98188369  0.20361115    -0.54400
C756        C  0.41024513  0.97445582  0.22805784     0.09600
C757        C  0.38252987  0.51111214  0.24636257    -0.53900
C758        C  0.39437246  0.50456341  0.27143525     0.10200
H759        H  0.44097052  0.55488220  0.20118819     0.14700
H760        H  0.43013945  0.49451703  0.28159521     0.00500
H761        H  0.38796168  0.96811073  0.18318219     0.15000
H762        H  0.36453596  0.51599022  0.25002020     0.14800
C763        C  0.39815345  0.89591656  0.20817902     0.86600
C764        C  0.39923943  0.92565755  0.20338727    -0.53600
C765        C  0.40993711  0.94502202  0.22846171     0.09500
C766        C  0.41960110  0.93209407  0.25627698     0.20500
C767        C  0.43000175  0.90414581  0.21387066    -0.54400
C768        C  0.44124914  0.92293411  0.23945806     0.09600
C769        C  0.38134853  0.88347628  0.24102642    -0.53900
C770        C  0.39239363  0.90204498  0.26619866     0.10200
H771        H  0.39168228  0.93006377  0.18124876     0.14700
H772        H  0.42868357  0.94697574  0.27711013     0.00500
H773        H  0.44145132  0.89389385  0.20121375     0.15000
H774        H  0.36309207  0.86093355  0.24444132     0.14800
C775        C  0.33343260  0.52388046  0.10118232     0.20500
C776        C  0.36182333  0.53875354  0.11300822    -0.39400
C777        C  0.36536811  0.52691676  0.14210652     0.19400
C778        C  0.34339484  0.00229868  0.15219709     0.22100
C779        C  0.31588281  0.98631560  0.13919546    -0.39900
C780        C  0.31114594  0.99979562  0.11260291     0.20900
N781        N  0.32414746  0.53061922  0.07425694    -0.33200
C782        C  0.29423810  0.01196494  0.07100070    -0.10700
C783        C  0.28705744  0.98954736  0.09421053    -0.29600
N784        N  0.35284279  0.99366663  0.17727028    -0.46200
C785        C  0.37981083  0.51485166  0.18636510    -0.05400
C786        C  0.38981419  0.53536614  0.16018125    -0.22800
H787        H  0.37975515  0.55802658  0.10049155     0.19000
H788        H  0.29937585  0.96472571  0.14899698     0.17800
H789        H  0.26693838  0.96844410  0.09708389     0.14100
H790        H  0.41187635  0.55341679  0.15467153     0.13900
H791        H  0.33661683  0.54811865  0.05757186     0.32100
H792        H  0.34088081  0.97391285  0.19104732     0.34900
C793        C  0.32738321  0.49549833  0.39577457     0.20500
C794        C  0.33515424  0.47765194  0.37624091    -0.39400
C795        C  0.35617150  0.49255942  0.35052612     0.19400
C796        C  0.36810469  0.52283648  0.34456963     0.22100
C797        C  0.36026087  0.54063335  0.36399806    -0.39900
C798        C  0.33957369  0.52581538  0.38991388     0.20900
N799        N  0.31076512  0.98213810  0.41753363    -0.33200
C800        C  0.31075010  0.00694690  0.42883104    -0.10700
C801        C  0.33199297  0.03233482  0.41168355    -0.29600
N802        N  0.38523282  0.53115395  0.31690236    -0.46200
C803        C  0.38449261  0.50616370  0.30519667    -0.05400
C804        C  0.36661880  0.48158459  0.32548471    -0.22800
H805        H  0.32498495  0.45380984  0.38022057     0.19000
H806        H  0.36900285  0.56413557  0.35873774     0.17800
H807        H  0.33604336  0.05494991  0.41422683     0.14100
H808        H  0.36108666  0.95591931  0.31346858     0.13900
H809        H  0.29640176  0.96011003  0.42499487     0.32100
H810        H  0.39525069  0.55217153  0.30544608     0.34900
C811        C  0.14821202  0.98683733  0.32353881     0.20500
C812        C  0.15061263  0.97012208  0.34893255    -0.39400
C813        C  0.17336927  0.98597932  0.36973215     0.19400
C814        C  0.19244485  0.01618617  0.36541137     0.22100
C815        C  0.18501759  0.52915750  0.34394272    -0.39900
C816        C  0.16266612  0.51264733  0.32286225     0.20900
N817        N  0.12140803  0.47320761  0.30771238    -0.33200
C818        C  0.12700697  0.49711632  0.28856577    -0.10700
C819        C  0.15341722  0.52184938  0.29668310    -0.29600
N820        N  0.21075039  0.02648014  0.38985380    -0.46200
C821        C  0.20331544  0.00268392  0.40991449    -0.05400
C822        C  0.18022612  0.97694985  0.39797150    -0.22800
H823        H  0.13493855  0.94677255  0.35319196     0.19000
H824        H  0.19980070  0.55277511  0.34011866     0.17800
H825        H  0.16284126  0.54441616  0.28713328     0.14100
H826        H  0.16937070  0.95480900  0.40896945     0.13900
H827        H  0.10339368  0.45181168  0.30810062     0.32100
H828        H  0.22092427  0.54623306  0.39789938     0.34900
C829        C  0.10510386  0.98494274  0.13547103     0.20500
C830        C  0.11466011  0.96799833  0.11682685    -0.39400
C831        C  0.13667674  0.98359101  0.09225603     0.19400
C832        C  0.15042186  0.51250178  0.08745180     0.22100
C833        C  0.13962382  0.52873796  0.10563610    -0.39900
C834        C  0.11756284  0.51260884  0.13019495     0.20900
N835        N  0.08996605  0.97686584  0.16450372    -0.33200
C836        C  0.09183152  0.49852304  0.17771381    -0.10700
C837        C  0.10748821  0.52285651  0.15632341    -0.29600
N838        N  0.17382966  0.52336890  0.06575727    -0.46200
C839        C  0.17505458  0.00034568  0.05702006    -0.05400
C840        C  0.15335019  0.97456240  0.07321765    -0.22800
H841        H  0.10724797  0.94485925  0.12281773     0.19000
H842        H  0.14929589  0.55263190  0.10260881     0.17800
H843        H  0.11488210  0.54578084  0.16177699     0.14100
H844        H  0.15118663  0.95255596  0.07267086     0.13900
H845        H  0.08361365  0.95689687  0.17711141     0.32100
H846        H  0.18691209  0.54553190  0.05794304     0.34900
C847        C  0.00840438  0.87835826  0.16569634     0.20500
C848        C  0.02366318  0.87713888  0.13686950    -0.39400
C849        C  0.00962013  0.85061658  0.11945824     0.19400
C850        C  0.47645258  0.81764782  0.13080012     0.22100
C851        C  0.46286312  0.81973460  0.16033954    -0.39900
C852        C  0.47764120  0.84686368  0.17619444     0.20900
N853        N  0.01717911  0.90059152  0.18709775    -0.33200
C854        C  0.49353929  0.88459869  0.20935776    -0.10700
C855        C  0.47093323  0.85558369  0.20565798    -0.29600
N856        N  0.46681765  0.79416437  0.11121211    -0.46200
C857        C  0.48755295  0.80209052  0.08631308    -0.05400
C858        C  0.01859185  0.84154186  0.09134361    -0.22800
H859        H  0.04504183  0.89529121  0.12886721     0.19000
H860        H  0.44239545  0.80146357  0.17039656     0.17800
H861        H  0.45223834  0.84257634  0.22248769     0.14100
H862        H  0.03908782  0.85388391  0.07689583     0.13900
H863        H  0.03657989  0.92094733  0.18553548     0.32100
H864        H  0.44755731  0.77376019  0.11485995     0.34900
C865        C  0.99642218  0.84331683  0.41219892     0.20500
C866        C  0.01402753  0.86897287  0.39304030    -0.39400
C867        C  0.99922187  0.87749620  0.37192685     0.19400
C868        C  0.47020837  0.85911717  0.36623099     0.22100
C869        C  0.45403618  0.83221812  0.38437888    -0.39900
C870        C  0.46943281  0.82641583  0.40781417     0.20900
N871        N  0.00565101  0.83047862  0.43344872    -0.33200
C872        C  0.48595209  0.80775302  0.44444975    -0.10700
C873        C  0.46082017  0.80206212  0.42848810    -0.29600
N874        N  0.46165025  0.86869504  0.34063574    -0.46200
C875        C  0.48538442  0.89464383  0.32968330    -0.05400
C876        C  0.01035759  0.89987983  0.34868833    -0.22800
H877        H  0.03770141  0.88113073  0.39403434     0.19000
H878        H  0.43139811  0.81660033  0.37999124     0.17800
H879        H  0.43939951  0.78236861  0.43097233     0.14100
H880        H  0.03342191  0.91477683  0.34240427     0.13900
H881        H  0.02736090  0.83789282  0.43910278     0.32100
H882        H  0.44151408  0.85730322  0.32993300     0.34900
C883        C  0.99942302  0.67668701  0.39884242     0.20500
C884        C  0.01663970  0.67322582  0.37371641    -0.39400
C885        C  0.00220778  0.64772632  0.35521272     0.19400
C886        C  0.47375088  0.62435409  0.36471013     0.22100
C887        C  0.45658597  0.63338064  0.38421152    -0.39900
C888        C  0.47209057  0.65716696  0.40499187     0.20900
N889        N  0.00809313  0.69931644  0.41948401    -0.35000
C890        C  0.48770350  0.69351101  0.44036101    -0.10700
C891        C  0.46233491  0.67123811  0.42714979    -0.29600
N892        N  0.46467599  0.60354882  0.34159065    -0.46200
C893        C  0.48925871  0.60385132  0.32828516    -0.05400
C894        C  0.01249577  0.63877800  0.32855652    -0.22800
H895        H  0.03956980  0.68943574  0.36865856     0.19000
H896        H  0.43295718  0.62282554  0.38311212     0.17800
H897        H  0.43984324  0.66606752  0.43295758     0.14100
H898        H  0.03441444  0.65026198  0.31683215     0.13900
H899        H  0.02911668  0.71772602  0.42008755     0.32100
H900        H  0.44333639  0.59132626  0.33392554     0.34900
C901        C  0.50830352  0.64442952  0.16351744     0.20500
C902        C  0.03253623  0.67393377  0.13402655    -0.39400
C903        C  0.50634980  0.67197965  0.11821281     0.19400
C904        C  0.47775026  0.66449090  0.12817350     0.22100
C905        C  0.46354862  0.64723822  0.15645313    -0.39900
C906        C  0.47995113  0.63768671  0.17371542     0.20900
N907        N  0.02636136  0.64036891  0.18021431    -0.33200
C908        C  0.49738479  0.61869825  0.20822114    -0.10700
C909        C  0.47279943  0.62145271  0.20240687    -0.29600
N910        N  0.46690304  0.67656795  0.10789422    -0.46200
C911        C  0.48879813  0.69222913  0.08496461    -0.05400
C912        C  0.02511624  0.70404849  0.09051041    -0.22800
H913        H  0.05626946  0.68456950  0.13123090     0.19000
H914        H  0.44139555  0.64185318  0.16459945     0.17800
H915        H  0.45249050  0.61285080  0.21739378     0.14100
H916        H  0.04739564  0.71904293  0.08125963     0.13900
H917        H  0.04831498  0.64706517  0.18396874     0.32100
H918        H  0.44610707  0.67486978  0.10998920     0.34900
C919        C  0.34496850  0.84904478  0.15278388     0.20500
C920        C  0.31749471  0.83651824  0.13959391    -0.39400
C921        C  0.31342389  0.81735658  0.11395992     0.19400
C922        C  0.33498216  0.81080424  0.10239589     0.22100
C923        C  0.36276565  0.82348584  0.11573277    -0.39900
C924        C  0.36697535  0.84305578  0.14150868     0.20900
N925        N  0.35390716  0.86824702  0.17694437    -0.33200
C926        C  0.38189342  0.87495426  0.18166442    -0.10700
C927        C  0.39107851  0.85966544  0.15988448    -0.29600
N928        N  0.32569426  0.79274149  0.07682684    -0.46200
C929        C  0.29832811  0.78835750  0.07207432    -0.05400
C930        C  0.28992288  0.80321629  0.09487865    -0.22800
H931        H  0.30065017  0.84178126  0.14833771     0.19000
H932        H  0.37987668  0.81882627  0.10644493     0.17800
H933        H  0.41218423  0.86042210  0.15782259     0.14100
H934        H  0.26969356  0.80428617  0.09661061     0.13900
H935        H  0.34156274  0.87641247  0.18973029     0.32100
H936        H  0.33763272  0.78492186  0.06267641     0.34900
C937        C  0.35689616  0.87686524  0.34527244     0.20500
C938        C  0.33627516  0.87221264  0.37116187    -0.39400
C939        C  0.33022948  0.84882003  0.39311753     0.19400
C940        C  0.34369340  0.83142903  0.38950920     0.22100
C941        C  0.36410820  0.83594910  0.36355890    -0.39900
C942        C  0.37008788  0.85923697  0.34167061     0.20900
N943        N  0.36465912  0.89595130  0.31969514    -0.33200
C944        C  0.38294221  0.89042189  0.29987264    -0.10700
C945        C  0.38650178  0.86742901  0.31257058    -0.29600
N946        N  0.33260049  0.80924196  0.41202232    -0.46200
C947        C  0.31169036  0.81226730  0.42996463    -0.05400
C948        C  0.30973784  0.83686891  0.41909384    -0.22800
H949        H  0.32502891  0.88515231  0.37340639     0.19000
H950        H  0.37381517  0.82167531  0.35999359     0.17800
H951        H  0.39814205  0.85693799  0.30101143     0.14100
H952        H  0.29428089  0.84401624  0.42783642     0.13900
H953        H  0.35632130  0.91013376  0.31483343     0.32100
H954        H  0.33787032  0.79219449  0.41397445     0.34900
C955        C  0.17219695  0.69112723  0.38135507     0.20500
C956        C  0.14711791  0.68420701  0.36445888    -0.39400
C957        C  0.14299100  0.66656405  0.33702104     0.19400
C958        C  0.16245490  0.65679667  0.32686392     0.22100
C959        C  0.18757956  0.66368661  0.34380838    -0.39900
C960        C  0.19155278  0.68105709  0.37155083     0.20900
N961        N  0.18037741  0.70657246  0.40887836    -0.33200
C962        C  0.20497363  0.70611423  0.41697575    -0.10700
C963        C  0.21265053  0.69042326  0.39422933    -0.29600
N964        N  0.15233029  0.63856174  0.30153327    -0.46200
C965        C  0.12579829  0.63597875  0.29589325    -0.05400
C966        C  0.11963474  0.65374797  0.31742473    -0.22800
H967        H  0.13144924  0.69124860  0.37267648     0.19000
H968        H  0.20242997  0.65535854  0.33653264     0.17800
H969        H  0.23112828  0.68636877  0.39433254     0.14100
H970        H  0.10014211  0.65602721  0.32021426     0.13900
H971        H  0.16961727  0.71642038  0.42166712     0.32100
H972        H  0.16196708  0.62699963  0.29009416     0.34900
C973        C  0.11807320  0.62514404  0.13520735     0.20500
C974        C  0.12222429  0.64507458  0.10962173    -0.39400
C975        C  0.14836792  0.65519246  0.08993026     0.19400
C976        C  0.16878913  0.64610123  0.09522405     0.22100
C977        C  0.16481630  0.62652762  0.12096464    -0.39900
C978        C  0.13877704  0.61648975  0.14063136     0.20900
N979        N  0.09738211  0.61577231  0.16004469    -0.33200
C980        C  0.10515402  0.60134335  0.18155327    -0.10700
C981        C  0.13088071  0.60151763  0.17016326    -0.29600
N982        N  0.19281951  0.66062958  0.07485208    -0.46200
C983        C  0.18787624  0.67942807  0.05670372    -0.05400
C984        C  0.16034094  0.67659332  0.06530422    -0.22800
H985        H  0.10697892  0.65328638  0.10631837     0.19000
H986        H  0.18149919  0.62074092  0.12632838     0.17800
H987        H  0.14410435  0.59498021  0.18370736     0.14100
H988        H  0.15096459  0.68947684  0.05585464     0.13900
H989        H  0.08113608  0.62191570  0.16399427     0.32100
H990        H  0.21203890  0.65906693  0.07456635     0.34900
O991        O  0.26447006  0.78224627  0.53670182    -0.72800
O992        O  0.21571810  0.73685443  0.95820383    -0.73800
O993        O  0.21015981  0.72956321  0.52922229    -0.62400
O994        O  0.26825097  0.79006454  0.96836768    -0.70800
O995        O  0.29251109  0.76485411  0.96130423    -0.70400
O996        O  0.23478404  0.70456105  0.52524819    -0.61600
O997        O  0.23965566  0.71117828  0.95325795    -0.74100
O998        O  0.28963245  0.75791114  0.53049905    -0.72900
Cu999      Cu  0.23957779  0.76210589  0.49891350     1.04600
Cu1000     Cu  0.26357899  0.73150182  0.99148962     1.04300
C1001       C  0.28461415  0.77690218  0.54549109     0.93400
C1002       C  0.22083486  0.71787976  0.94326431     0.92500
C1003       C  0.21300040  0.70721218  0.53715844     0.84700
C1004       C  0.28973839  0.78768889  0.95533350     0.90900
O1005       O  0.01218001  0.79545785  0.97506960    -0.72800
O1006       O  0.01471505  0.73478126  0.54127621    -0.73800
O1007       O  0.01397853  0.74055311  0.97273596    -0.62400
O1008       O  0.01362122  0.78940759  0.54501150    -0.70800
O1009       O  0.46951548  0.76772216  0.55086435    -0.70400
O1010       O  0.45511764  0.70397642  0.98226336    -0.61600
O1011       O  0.46966027  0.71267302  0.54921606    -0.74100
O1012       O  0.45491533  0.75938663  0.98407850    -0.72900
Cu1013     Cu  0.01301184  0.76297141  0.50858018     1.04600
Cu1014     Cu  0.46546298  0.73859600  0.51578011     1.04300
C1015       C  0.47860820  0.77936030  0.96936263     0.93400
C1016       C  0.49461631  0.71600387  0.55619943     0.92500
C1017       C  0.47867448  0.70633418  0.96827978     0.84700
C1018       C  0.49448027  0.78847287  0.55891551     0.90900
O1019       O  0.27855672  0.53707614  0.53235949    -0.72800
O1020       O  0.23355067  0.52774887  0.95730304    -0.73800
O1021       O  0.22064818  0.53039780  0.52691860    -0.62400
O1022       O  0.28856202  0.53099679  0.96432058    -0.70800
O1023       O  0.26435208  0.98159563  0.96680924    -0.70400
O1024       O  0.20309517  0.98268288  0.52328024    -0.61600
O1025       O  0.20821345  0.97630882  0.95900682    -0.74100
O1026       O  0.25785119  0.98446714  0.53337121    -0.72900
Cu1027     Cu  0.25731181  0.53120210  0.99529361     1.04600
Cu1028     Cu  0.23463616  0.98063580  0.49419868     1.04300
C1029       C  0.27767879  0.00967886  0.54282536     0.93400
C1030       C  0.21143408  0.99990698  0.94493787     0.92500
C1031       C  0.20490961  0.00751607  0.53143876     0.84700
C1032       C  0.28397608  0.00672341  0.95461016     0.90900
C1033       C  0.48845075  0.90678143  0.79858129     0.86600
C1034       C  0.01333197  0.94264520  0.79204086    -0.53600
C1035       C  0.02016333  0.95444353  0.76097268     0.09500
C1036       C  0.49806075  0.93388679  0.74195221     0.20500
C1037       C  0.46366007  0.91259940  0.79002321    -0.54400
C1038       C  0.46804528  0.92626424  0.76008754     0.09600
C1039       C  0.49228982  0.88966113  0.76972310    -0.53900
C1040       C  0.49701316  0.90347702  0.74018049     0.10200
H1041       H  0.02747129  0.95368428  0.81174535     0.14700
H1042       H  0.50194877  0.94518536  0.71782242     0.00500
H1043       H  0.44385747  0.90520032  0.80540669     0.15000
H1044       H  0.49012052  0.86766756  0.77237712     0.14800
C1045       C  0.48805249  0.59124656  0.79291012     0.86600
C1046       C  0.46262266  0.56247126  0.78231222    -0.53600
C1047       C  0.46769521  0.55315151  0.75262661     0.09500
C1048       C  0.49895407  0.57413034  0.73615036     0.20500
C1049       C  0.01428848  0.58732652  0.79224784    -0.54400
C1050       C  0.02122127  0.57999543  0.76213156     0.09600
C1051       C  0.49488957  0.61354844  0.76457040    -0.53900
C1052       C  0.50004843  0.60449135  0.73484818     0.10200
H1053       H  0.44190215  0.55131410  0.79648035     0.14700
H1054       H  0.50312014  0.56658701  0.71207056     0.00500
H1055       H  0.02781023  0.59115836  0.81278832     0.15000
H1056       H  0.49342054  0.63378584  0.76744594     0.14800
C1057       C  0.10376103  0.61563465  0.77064651     0.86600
C1058       C  0.07361780  0.61297206  0.77118520    -0.53600
C1059       C  0.05332715  0.58971349  0.75411178     0.09500
C1060       C  0.06738929  0.57319739  0.73403243     0.20500
C1061       C  0.09789288  0.58455500  0.78004829    -0.54400
C1062       C  0.08077231  0.56206266  0.75988954     0.09600
C1063       C  0.11403201  0.62015920  0.73498466    -0.53900
C1064       C  0.09523653  0.59862652  0.71540287     0.10200
H1065       H  0.06812489  0.62746611  0.78551455     0.14700
H1066       H  0.05217167  0.55549151  0.71820816     0.00500
H1067       H  0.10795368  0.58171664  0.80099558     0.15000
H1068       H  0.13469658  0.63894705  0.72581998     0.14800
C1069       C  0.10562573  0.50320342  0.77235958     0.86600
C1070       C  0.10293875  0.53112024  0.77709288    -0.53600
C1071       C  0.08231698  0.53329337  0.75968953     0.09500
C1072       C  0.06512697  0.50514524  0.73880603     0.20500
C1073       C  0.07240193  0.97165776  0.76876895    -0.54400
C1074       C  0.05232072  0.97535451  0.75217365     0.09600
C1075       C  0.11050202  0.50163018  0.73586981    -0.53900
C1076       C  0.08952576  0.50235187  0.71811322     0.10200
H1077       H  0.11748411  0.54810521  0.79270327     0.14700
H1078       H  0.04816573  0.50573537  0.72422846     0.00500
H1079       H  0.06602876  0.95164498  0.78305643     0.15000
H1080       H  0.12882477  0.49956881  0.72486335     0.14800
C1081       C  0.39755649  0.51217719  0.70848360     0.86600
C1082       C  0.43010296  0.53513445  0.71159496    -0.53600
C1083       C  0.44250242  0.52880132  0.73687314     0.09500
C1084       C  0.42103852  0.49947115  0.75603437     0.20500
C1085       C  0.39734334  0.98173368  0.70753124    -0.54400
C1086       C  0.40944287  0.97481184  0.73252364     0.09600
C1087       C  0.38272866  0.51065275  0.74214037    -0.53900
C1088       C  0.39477649  0.50401960  0.76705586     0.10200
H1089       H  0.44117667  0.55603545  0.69782801     0.14700
H1090       H  0.43107791  0.49453916  0.77650788     0.00500
H1091       H  0.38830462  0.96811856  0.68669475     0.15000
H1092       H  0.36455425  0.51521905  0.74603388     0.14800
C1093       C  0.39848959  0.89645321  0.71415448     0.86600
C1094       C  0.39912475  0.92589240  0.70888922    -0.53600
C1095       C  0.41019398  0.94586954  0.73336084     0.09500
C1096       C  0.42086365  0.93380543  0.76116800     0.20500
C1097       C  0.43059243  0.90524626  0.71904956    -0.54400
C1098       C  0.44243556  0.92451718  0.74408679     0.09600
C1099       C  0.38240336  0.88466673  0.74744456    -0.53900
C1100       C  0.39390383  0.90384342  0.77210080     0.10200
H1101       H  0.39065329  0.92947463  0.68702493     0.14700
H1102       H  0.43034855  0.94921850  0.78150435     0.00500
H1103       H  0.44191967  0.89507833  0.70612607     0.15000
H1104       H  0.36428217  0.86213542  0.75152183     0.14800
C1105       C  0.33263074  0.53051627  0.60131091     0.20500
C1106       C  0.36009130  0.54659394  0.61534478    -0.39400
C1107       C  0.36510699  0.53175900  0.64099194     0.19400
C1108       C  0.34244055  0.00037702  0.65345559     0.22100
C1109       C  0.31522645  0.98446985  0.63959013    -0.39900
C1110       C  0.31134991  0.99793361  0.61224403     0.20900
N1111       N  0.32209746  0.53909438  0.57671387    -0.33200
C1112       C  0.29581398  0.01079908  0.56971143    -0.10700
C1113       C  0.28765227  0.98821800  0.59312842    -0.29600
N1114       N  0.35117576  0.99207786  0.67949866    -0.46200
C1115       C  0.38060791  0.51609091  0.68192517    -0.05400
C1116       C  0.38901117  0.54021736  0.66015017    -0.22800
H1117       H  0.37623763  0.56885287  0.60698060     0.19000
H1118       H  0.29827177  0.96310591  0.64943480     0.17800
H1119       H  0.26712753  0.96748757  0.59580100     0.14100
H1120       H  0.40949894  0.56102022  0.65862956     0.13900
H1121       H  0.33272547  0.55935568  0.56369070     0.32100
H1122       H  0.33890368  0.97249567  0.69347615     0.34900
C1123       C  0.33382490  0.49399973  0.89686280     0.20500
C1124       C  0.34229335  0.47691506  0.87673444    -0.39400
C1125       C  0.36125528  0.49202680  0.84941819     0.19400
C1126       C  0.37070116  0.52176364  0.84265740     0.22100
C1127       C  0.36274705  0.53891690  0.86304387    -0.39900
C1128       C  0.34403744  0.52392421  0.89035438     0.20900
N1129       N  0.31186755  0.98567820  0.92330872    -0.33200
C1130       C  0.30608388  0.00823000  0.92990502    -0.10700
C1131       C  0.32162670  0.03206553  0.90798533    -0.29600
N1132       N  0.38516057  0.52997293  0.81328880    -0.46200
C1133       C  0.38540080  0.50552815  0.80126589    -0.05400
C1134       C  0.37096329  0.48145270  0.82320080    -0.22800
H1135       H  0.33360563  0.45329289  0.88109795     0.19000
H1136       H  0.36941301  0.56190061  0.85713829     0.17800
H1137       H  0.32038481  0.05240716  0.90645989     0.14100
H1138       H  0.37064510  0.96143875  0.82588461     0.13900
H1139       H  0.30260208  0.96495160  0.93529425     0.32100
H1140       H  0.39305460  0.55055829  0.80132767     0.34900
C1141       C  0.13926969  0.98089663  0.83040983     0.20500
C1142       C  0.13999563  0.96533600  0.85797827    -0.39400
C1143       C  0.16392259  0.98092809  0.87732595     0.19400
C1144       C  0.18537759  0.00995590  0.86991755     0.22100
C1145       C  0.18547194  0.53371889  0.84964193    -0.39900
C1146       C  0.16409440  0.51780647  0.82738288     0.20900
N1147       N  0.12595374  0.47777128  0.80774044    -0.33200
C1148       C  0.12918300  0.50257012  0.79226497    -0.10700
C1149       C  0.15362078  0.52788733  0.80329730    -0.29600
N1150       N  0.20481709  0.02040096  0.89320392    -0.46200
C1151       C  0.19583002  0.99778304  0.91542628    -0.05400
C1152       C  0.17048575  0.97269566  0.90624982    -0.22800
H1153       H  0.12263000  0.94304459  0.86449148     0.19000
H1154       H  0.19817321  0.55778168  0.84876545     0.17800
H1155       H  0.16142326  0.55094819  0.79660145     0.14100
H1156       H  0.15818769  0.95156243  0.91933220     0.13900
H1157       H  0.10957498  0.45577459  0.80517531     0.32100
H1158       H  0.22115928  0.54848303  0.90356155     0.34900
C1159       C  0.11162418  0.99527153  0.63143016     0.20500
C1160       C  0.11708783  0.97796987  0.60836550    -0.39400
C1161       C  0.14219675  0.99341809  0.58704915     0.19400
C1162       C  0.14975811  0.51470967  0.59223098     0.22100
C1163       C  0.13889852  0.53058211  0.61092642    -0.39900
C1164       C  0.11691188  0.51398545  0.63530491     0.20900
N1165       N  0.09265057  0.98522137  0.65788760    -0.33200
C1166       C  0.09110411  0.49915307  0.68257682    -0.10700
C1167       C  0.10632546  0.52366078  0.66142934    -0.29600
N1168       N  0.17263142  0.52586735  0.56989903    -0.46200
C1169       C  0.18169501  0.00793424  0.55352911    -0.05400
C1170       C  0.15557397  0.98290066  0.56475764    -0.22800
H1171       H  0.10388737  0.95395739  0.60845963     0.19000
H1172       H  0.14825176  0.55446152  0.60815900     0.17800
H1173       H  0.11316043  0.54638043  0.66717654     0.14100
H1174       H  0.14813930  0.95992575  0.55870065     0.13900
H1175       H  0.07882236  0.96293492  0.66477982     0.32100
H1176       H  0.18540765  0.54808497  0.56214624     0.34900
C1177       C  0.00773219  0.87108178  0.66712164     0.20500
C1178       C  0.02362729  0.86727811  0.64051275    -0.39400
C1179       C  0.00813922  0.84122534  0.62282152     0.19400
C1180       C  0.48167599  0.82498443  0.62715426     0.22100
C1181       C  0.46509196  0.82885689  0.65282273    -0.39900
C1182       C  0.48065538  0.85324655  0.67257794     0.20900
N1183       N  0.01726727  0.89388195  0.68782042    -0.33200
C1184       C  0.49614567  0.88776184  0.70972531    -0.10700
C1185       C  0.47125713  0.86255874  0.69990520    -0.29600
N1186       N  0.47190235  0.80336398  0.60516074    -0.46200
C1187       C  0.49572462  0.80817634  0.58574344    -0.05400
C1188       C  0.01667024  0.83106169  0.59540933    -0.22800
H1189       H  0.04626796  0.88349617  0.63391396     0.19000
H1190       H  0.44176037  0.81386227  0.65719755     0.17800
H1191       H  0.44937619  0.85201270  0.71172314     0.14100
H1192       H  0.03797568  0.84164015  0.58225058     0.13900
H1193       H  0.03820494  0.91248671  0.68766249     0.32100
H1194       H  0.45034893  0.78609286  0.60374145     0.34900
C1195       C  0.99716651  0.84853895  0.91214936     0.20500
C1196       C  0.01344941  0.87472106  0.89336539    -0.39400
C1197       C  0.99783920  0.88096824  0.87099328     0.19400
C1198       C  0.46846712  0.85833621  0.87011814     0.22100
C1199       C  0.45007666  0.83514236  0.89253790    -0.39900
C1200       C  0.46433387  0.82399918  0.91172405     0.20900
N1201       N  0.00751688  0.83714905  0.93384933    -0.33200
C1202       C  0.47807991  0.79987785  0.94482822    -0.10700
C1203       C  0.45342657  0.80113466  0.93503254    -0.29600
N1204       N  0.46055554  0.87154638  0.84745706    -0.46200
C1205       C  0.48590725  0.89080960  0.83038721    -0.05400
C1206       C  0.00803656  0.90302507  0.84746104    -0.22800
H1207       H  0.03685800  0.88880488  0.89532862     0.19000
H1208       H  0.42646782  0.82606218  0.89441435     0.17800
H1209       H  0.43071608  0.78715502  0.94358666     0.14100
H1210       H  0.03085215  0.91939116  0.84217152     0.13900
H1211       H  0.02922735  0.84636370  0.94041618     0.32100
H1212       H  0.43919706  0.86650037  0.84282770     0.34900
C1213       C  0.00154142  0.67626931  0.90371736     0.20500
C1214       C  0.01832644  0.66797483  0.88285658    -0.39400
C1215       C  0.00246846  0.64377615  0.86296559     0.19400
C1216       C  0.46633986  0.62467167  0.85892093     0.22100
C1217       C  0.45133436  0.63858860  0.87361998    -0.39900
C1218       C  0.46364017  0.65514094  0.90140516     0.20900
N1219       N  0.01162848  0.69855463  0.92498807    -0.35000
C1220       C  0.47706162  0.68511414  0.94321061    -0.10700
C1221       C  0.45539810  0.67221986  0.92073736    -0.29600
N1222       N  0.46084888  0.60994543  0.83074299    -0.46200
C1223       C  0.48267537  0.60299427  0.82508605    -0.05400
C1224       C  0.01242630  0.63146703  0.83927396    -0.22800
H1225       H  0.04211101  0.67967697  0.88199214     0.19000
H1226       H  0.43202056  0.63732124  0.86365677     0.17800
H1227       H  0.43677786  0.67571909  0.91819219     0.14100
H1228       H  0.03515822  0.63918209  0.83130234     0.13900
H1229       H  0.03360117  0.71307883  0.92929710     0.32100
H1230       H  0.44430686  0.60638941  0.81527169     0.34900
C1231       C  0.51108617  0.64469853  0.65960482     0.20500
C1232       C  0.02509961  0.66389726  0.63292366    -0.39400
C1233       C  0.51131583  0.67382621  0.61446700     0.19400
C1234       C  0.48223927  0.66569703  0.62260080     0.22100
C1235       C  0.46659311  0.64712029  0.64964651    -0.39900
C1236       C  0.48218049  0.63718878  0.66786999     0.20900
N1237       N  0.01981853  0.63393977  0.68226100    -0.33200
C1238       C  0.49852927  0.61869504  0.70439603    -0.10700
C1239       C  0.47393958  0.62070055  0.69651922    -0.29600
N1240       N  0.47264280  0.67911699  0.60246307    -0.46200
C1241       C  0.49577625  0.69632319  0.58145417    -0.05400
C1242       C  0.01788700  0.69306823  0.58807067    -0.22800
H1243       H  0.04787196  0.67043780  0.62652682     0.19000
H1244       H  0.44411654  0.64144856  0.65652321     0.17800
H1245       H  0.45304729  0.61183919  0.71041346     0.14100
H1246       H  0.03935908  0.70423446  0.57530824     0.13900
H1247       H  0.04098170  0.63666434  0.68251438     0.32100
H1248       H  0.45181594  0.67735837  0.60357010     0.34900
C1249       C  0.34591405  0.84998400  0.65769000     0.20500
C1250       C  0.31944995  0.83917391  0.64251762    -0.39400
C1251       C  0.31595432  0.82065326  0.61633104     0.19400
C1252       C  0.33698621  0.81289772  0.60616848     0.22100
C1253       C  0.36383208  0.82396218  0.62142091    -0.39900
C1254       C  0.36759732  0.84313744  0.64756692     0.20900
N1255       N  0.35443246  0.86880252  0.68228326    -0.33200
C1256       C  0.38205244  0.87485730  0.68805231    -0.10700
C1257       C  0.39117475  0.85906143  0.66691051    -0.29600
N1258       N  0.32828655  0.79548699  0.57994047    -0.46200
C1259       C  0.30185914  0.79278578  0.57332861    -0.05400
C1260       C  0.29351952  0.80810636  0.59560602    -0.22800
H1261       H  0.30299707  0.84534500  0.65013840     0.19000
H1262       H  0.38070260  0.81859278  0.61312711     0.17800
H1263       H  0.41208150  0.85938125  0.66554555     0.14100
H1264       H  0.27387009  0.81023064  0.59619322     0.13900
H1265       H  0.34229338  0.87764512  0.69417738     0.32100
H1266       H  0.33995627  0.78679946  0.56677206     0.34900
C1267       C  0.35949908  0.87932751  0.85176883     0.20500
C1268       C  0.33850940  0.87415033  0.87747044    -0.39400
C1269       C  0.33149729  0.84970546  0.89830288     0.19400
C1270       C  0.34458175  0.83201528  0.89392427     0.22100
C1271       C  0.36536101  0.83711560  0.86831046    -0.39900
C1272       C  0.37211522  0.86123465  0.84745940     0.20900
N1273       N  0.36746685  0.89875471  0.82643359    -0.33200
C1274       C  0.38518651  0.89281256  0.80607901    -0.10700
C1275       C  0.38816034  0.86931521  0.81823357    -0.29600
N1276       N  0.33235555  0.80862055  0.91483602    -0.46200
C1277       C  0.31100888  0.81105668  0.93247423    -0.05400
C1278       C  0.30996067  0.83657687  0.92316234    -0.22800
H1279       H  0.32742370  0.88722482  0.88008978     0.19000
H1280       H  0.37446794  0.82240684  0.86392046     0.17800
H1281       H  0.39877384  0.85809748  0.80597997     0.14100
H1282       H  0.29438016  0.84353776  0.93198918     0.13900
H1283       H  0.35922805  0.91308266  0.82182245     0.32100
H1284       H  0.33709991  0.79114103  0.91573419     0.34900
C1285       C  0.17323427  0.69158806  0.87773851     0.20500
C1286       C  0.14886739  0.68647673  0.86056277    -0.39400
C1287       C  0.14417462  0.66910829  0.83294814     0.19400
C1288       C  0.16262025  0.65805113  0.82284571     0.22100
C1289       C  0.18705517  0.66308596  0.84012209    -0.39900
C1290       C  0.19150515  0.68013894  0.86814361     0.20900
N1291       N  0.18144905  0.70630520  0.90555096    -0.33200
C1292       C  0.20497100  0.70407818  0.91408141    -0.10700
C1293       C  0.21198828  0.68788357  0.89136042    -0.29600
N1294       N  0.15175955  0.63997792  0.79765622    -0.46200
C1295       C  0.12568683  0.63862822  0.79237127    -0.05400
C1296       C  0.12063846  0.65719484  0.81358430    -0.22800
H1297       H  0.13396413  0.69446328  0.86885608     0.19000
H1298       H  0.20087104  0.65350232  0.83297973     0.17800
H1299       H  0.22959605  0.68251529  0.89180000     0.14100
H1300       H  0.10148286  0.66006226  0.81657292     0.13900
H1301       H  0.17138602  0.71689927  0.91822641     0.32100
H1302       H  0.16030466  0.62732269  0.78648322     0.34900
C1303       C  0.11850131  0.62588370  0.63479045     0.20500
C1304       C  0.12330459  0.64675199  0.60998248    -0.39400
C1305       C  0.15049369  0.65862773  0.59195177     0.19400
C1306       C  0.17128682  0.65023992  0.59798370     0.22100
C1307       C  0.16670464  0.62979201  0.62305674    -0.39900
C1308       C  0.13961017  0.61804929  0.64112606     0.20900
N1309       N  0.09667099  0.61504141  0.65845469    -0.33200
C1310       C  0.10408846  0.60062959  0.68039844    -0.10700
C1311       C  0.13076365  0.60214785  0.67012858    -0.29600
N1312       N  0.19589462  0.66582992  0.57866266    -0.46200
C1313       C  0.19091196  0.68457635  0.56041571    -0.05400
C1314       C  0.16285310  0.68077157  0.56807196    -0.22800
H1315       H  0.10762794  0.65428389  0.60605516     0.19000
H1316       H  0.18358482  0.62451345  0.62911164     0.17800
H1317       H  0.14408813  0.59633108  0.68446652     0.14100
H1318       H  0.15308868  0.69305376  0.55802903     0.13900
H1319       H  0.08000608  0.62066572  0.66179065     0.32100
H1320       H  0.21527777  0.66460298  0.57875327     0.34900
O1321       O  0.76116157  0.27847655  0.03732276    -0.72800
O1322       O  0.71376275  0.23929588  0.46323331    -0.73800
O1323       O  0.70745829  0.22549276  0.02839584    -0.62400
O1324       O  0.76652520  0.29354157  0.46981228    -0.70800
O1325       O  0.79171665  0.26921431  0.46385974    -0.70400
O1326       O  0.73304665  0.20143606  0.02516075    -0.61600
O1327       O  0.73891287  0.21484269  0.45853942    -0.74100
O1328       O  0.78738369  0.25526626  0.03064912    -0.72900
Cu1329     Cu  0.73708686  0.25861800  0.99903754     1.04600
Cu1330     Cu  0.76367071  0.23652046  0.49563752     1.04300
C1331       C  0.78188069  0.27389266  0.04572961     0.93400
C1332       C  0.71917999  0.22029178  0.44878016     0.92500
C1333       C  0.71078868  0.20349748  0.03651219     0.84700
C1334       C  0.78792415  0.29116090  0.45642455     0.90900
O1335       O  0.50784194  0.28718922  0.47800599    -0.72800
O1336       O  0.51980509  0.23836837  0.04146579    -0.73800
O1337       O  0.50794537  0.23206718  0.47451180    -0.62400
O1338       O  0.51898571  0.29366635  0.04577389    -0.70800
O1339       O  0.96157702  0.26213105  0.05497458    -0.70400
O1340       O  0.96493370  0.21317649  0.48257579    -0.61600
O1341       O  0.96022335  0.20649703  0.05250468    -0.74100
O1342       O  0.96366609  0.26765260  0.48520471    -0.72900
Cu1343     Cu  0.51820567  0.26675556  0.00918118     1.04600
Cu1344     Cu  0.95732437  0.23332758  0.01921401     1.04300
C1345       C  0.98674356  0.28865944  0.47075920     0.93400
C1346       C  0.98498287  0.20956767  0.05988498     0.92500
C1347       C  0.98835453  0.21634944  0.46743667     0.84700
C1348       C  0.98670783  0.28246671  0.06317511     0.90900
O1349       O  0.77943269  0.03329694  0.02880028    -0.72800
O1350       O  0.72557372  0.02405565  0.45382518    -0.73800
O1351       O  0.72231166  0.02732972  0.02076382    -0.62400
O1352       O  0.78129344  0.03057332  0.46141805    -0.70800
O1353       O  0.76728139  0.48102297  0.46302709    -0.70400
O1354       O  0.70128765  0.47991653  0.02606125    -0.61600
O1355       O  0.71252648  0.47910045  0.45574512    -0.74100
O1356       O  0.75777997  0.48612990  0.03457791    -0.72900
Cu1357     Cu  0.74984200  0.02999415  0.49203095     1.04600
Cu1358     Cu  0.73331939  0.47995794  0.99640245     1.04300
C1359       C  0.77634730  0.51196450  0.04391670     0.93400
C1360       C  0.71664122  0.50315558  0.44191307     0.92500
C1361       C  0.70087661  0.50379222  0.03383678     0.84700
C1362       C  0.78762232  0.50586322  0.45096224     0.90900
C1363       C  0.98678691  0.40961978  0.29948294     0.86600
C1364       C  0.51417706  0.44013472  0.29719547    -0.53600
C1365       C  0.52079282  0.45424976  0.26730229     0.09500
C1366       C  0.99638719  0.43389684  0.24112948     0.20500
C1367       C  0.96198939  0.41485419  0.28964667    -0.54400
C1368       C  0.96633965  0.42700551  0.25887278     0.09600
C1369       C  0.99048244  0.39106912  0.27206602    -0.53900
C1370       C  0.99510010  0.40335794  0.24158682     0.10200
H1371       H  0.52766308  0.44963237  0.31778964     0.14700
H1372       H  0.00014570  0.44400209  0.21633538     0.00500
H1373       H  0.94203272  0.40780998  0.30481420     0.15000
H1374       H  0.98800314  0.36912048  0.27633366     0.14800
C1375       C  0.98620029  0.09043027  0.29895024     0.86600
C1376       C  0.96015655  0.06207117  0.28798438    -0.53600
C1377       C  0.96468069  0.05389361  0.25723689     0.09500
C1378       C  0.99564618  0.07522302  0.24053672     0.20500
C1379       C  0.51372645  0.08784228  0.29003358    -0.54400
C1380       C  0.52210390  0.07974214  0.26124240     0.09600
C1381       C  0.99236730  0.11364545  0.27193182    -0.53900
C1382       C  0.99665500  0.10550225  0.24141943     0.10200
H1383       H  0.93965963  0.05035529  0.30256387     0.14700
H1384       H  0.99921920  0.06853357  0.21571578     0.00500
H1385       H  0.52563785  0.09191202  0.31198547     0.15000
H1386       H  0.99096058  0.13376266  0.27634162     0.14800
C1387       C  0.60375461  0.11086340  0.27592248     0.86600
C1388       C  0.57378822  0.10859091  0.27589093    -0.53600
C1389       C  0.55402485  0.08712039  0.25666111     0.09500
C1390       C  0.56845000  0.07163194  0.23556021     0.20500
C1391       C  0.59740260  0.07901868  0.28252939    -0.54400
C1392       C  0.58052730  0.05817680  0.26049950     0.09600
C1393       C  0.61534255  0.11769629  0.24063523    -0.53900
C1394       C  0.59706233  0.09782592  0.21924007     0.10200
H1395       H  0.56844185  0.12305229  0.29033857     0.14700
H1396       H  0.55375668  0.05539328  0.21814526     0.00500
H1397       H  0.60739119  0.07458606  0.30251674     0.15000
H1398       H  0.63641871  0.13674403  0.23306322     0.14800
C1399       C  0.60369467  0.99719480  0.26504041     0.86600
C1400       C  0.59997625  0.02384630  0.27488026    -0.53600
C1401       C  0.58117940  0.02896227  0.25729153     0.09500
C1402       C  0.56583523  0.00414980  0.23182435     0.20500
C1403       C  0.57398277  0.47610080  0.27569574    -0.54400
C1404       C  0.55250372  0.47755431  0.25936987     0.09600
C1405       C  0.61180772  0.00157742  0.22871537    -0.53900
C1406       C  0.59191353  0.00438765  0.21085399     0.10200
H1407       H  0.61305652  0.03810455  0.29362953     0.14700
H1408       H  0.54979671  0.00668279  0.21746257     0.00500
H1409       H  0.56899508  0.45828000  0.29284651     0.15000
H1410       H  0.63058793  0.00034885  0.21769904     0.14800
C1411       C  0.89571121  0.01229243  0.21011394     0.86600
C1412       C  0.92772416  0.03627398  0.21485225    -0.53600
C1413       C  0.93963173  0.03002615  0.24077349     0.09500
C1414       C  0.91854223  0.00004107  0.25868081     0.20500
C1415       C  0.90045417  0.48489663  0.20240847    -0.54400
C1416       C  0.91208748  0.47762379  0.22756221     0.09600
C1417       C  0.87954181  0.00946533  0.24312938    -0.53900
C1418       C  0.89132149  0.00318602  0.26846630     0.10200
H1419       H  0.93864493  0.05743363  0.20155510     0.14700
H1420       H  0.92814232  0.99527778  0.27970308     0.00500
H1421       H  0.89076754  0.47097359  0.18196247     0.15000
H1422       H  0.86088222  0.01334911  0.24640367     0.14800
C1423       C  0.89796834  0.39793225  0.21030428     0.86600
C1424       C  0.90005232  0.42799198  0.20459799    -0.53600
C1425       C  0.91073774  0.44765977  0.22940963     0.09500
C1426       C  0.91919524  0.43442626  0.25822654     0.20500
C1427       C  0.92943377  0.40544011  0.21699298    -0.54400
C1428       C  0.94067975  0.42446545  0.24237036     0.09600
C1429       C  0.88034956  0.38611786  0.24284503    -0.53900
C1430       C  0.89115109  0.40472338  0.26803461     0.10200
H1431       H  0.89328035  0.43240754  0.18191088     0.14700
H1432       H  0.92815007  0.44947108  0.27896799     0.00500
H1433       H  0.94075911  0.39487785  0.20478718     0.15000
H1434       H  0.86165546  0.36381295  0.24611427     0.14800
C1435       C  0.83136607  0.02726878  0.10026892     0.20500
C1436       C  0.85907584  0.04318631  0.11367800    -0.39400
C1437       C  0.86340848  0.02959077  0.14093543     0.19400
C1438       C  0.84617671  0.50371041  0.14856448     0.22100
C1439       C  0.81925119  0.48705770  0.13464195    -0.39900
C1440       C  0.81365013  0.50126900  0.10953041     0.20900
N1441       N  0.82177630  0.03484477  0.07408603    -0.33200
C1442       C  0.79547420  0.51428836  0.07000034    -0.10700
C1443       C  0.78963551  0.49081821  0.09112018    -0.29600
N1444       N  0.85582296  0.49491445  0.17326428    -0.46200
C1445       C  0.87866726  0.01547141  0.18321812    -0.05400
C1446       C  0.88754643  0.03835671  0.15973971    -0.22800
H1447       H  0.87601826  0.06440402  0.10351494     0.19000
H1448       H  0.80366998  0.46457683  0.14293036     0.17800
H1449       H  0.77048036  0.46887052  0.09254065     0.14100
H1450       H  0.90862089  0.05841869  0.15666657     0.13900
H1451       H  0.83344574  0.05400053  0.05933507     0.32100
H1452       H  0.84445758  0.47447746  0.18591920     0.34900
C1453       C  0.82660883  0.99382443  0.39449345     0.20500
C1454       C  0.83564854  0.97673130  0.37540402    -0.39400
C1455       C  0.85536689  0.99178572  0.34876331     0.19400
C1456       C  0.86502226  0.02150377  0.34157982     0.22100
C1457       C  0.85611106  0.03862325  0.36071446    -0.39900
C1458       C  0.83663213  0.02364748  0.38748573     0.20900
N1459       N  0.81203581  0.48291283  0.41625395    -0.33200
C1460       C  0.80954238  0.50681488  0.42624196    -0.10700
C1461       C  0.82847274  0.53220166  0.40764677    -0.29600
N1462       N  0.88084062  0.02968203  0.31304552    -0.46200
C1463       C  0.88144624  0.00512692  0.30205539    -0.05400
C1464       C  0.86597946  0.98108554  0.32368022    -0.22800
H1465       H  0.82710120  0.95319285  0.38021479     0.19000
H1466       H  0.86294621  0.06158711  0.35447901     0.17800
H1467       H  0.83035232  0.55406076  0.40914542     0.14100
H1468       H  0.86782639  0.46020019  0.31428555     0.13900
H1469       H  0.79984582  0.46100090  0.42521152     0.32100
H1470       H  0.88923184  0.05020315  0.30077084     0.34900
C1471       C  0.64487467  0.48458217  0.32708551     0.20500
C1472       C  0.64635207  0.46879483  0.35394566    -0.39400
C1473       C  0.66976169  0.48477761  0.37377747     0.19400
C1474       C  0.69029576  0.51431223  0.36734487     0.22100
C1475       C  0.68463009  0.02373809  0.33912659    -0.39900
C1476       C  0.66135937  0.00797079  0.31898682     0.20900
N1477       N  0.61818605  0.97015853  0.30589188    -0.33200
C1478       C  0.62523789  0.99398031  0.28586303    -0.10700
C1479       C  0.65269196  0.01765521  0.29272231    -0.29600
N1480       N  0.70946794  0.52479633  0.39097959    -0.46200
C1481       C  0.70109034  0.50168405  0.41244881    -0.05400
C1482       C  0.67648641  0.47632845  0.40240033    -0.22800
H1483       H  0.62971895  0.44602748  0.35975681     0.19000
H1484       H  0.70071636  0.04688407  0.33435298     0.17800
H1485       H  0.66319154  0.04002893  0.28236802     0.14100
H1486       H  0.66481203  0.45474872  0.41467325     0.13900
H1487       H  0.59907715  0.94960163  0.30783732     0.32100
H1488       H  0.72121781  0.04007023  0.39223164     0.34900
C1489       C  0.60668447  0.48382847  0.13571346     0.20500
C1490       C  0.61677795  0.46770126  0.11640229    -0.39400
C1491       C  0.63889806  0.48415556  0.09224484     0.19400
C1492       C  0.65151301  0.01373402  0.08437498     0.22100
C1493       C  0.64175408  0.03063096  0.10290657    -0.39900
C1494       C  0.61994946  0.01504470  0.12783753     0.20900
N1495       N  0.59055594  0.47449607  0.16408484    -0.33200
C1496       C  0.59386717  0.00144843  0.17514821    -0.10700
C1497       C  0.61030692  0.02576032  0.15390161    -0.29600
N1498       N  0.67418706  0.02393190  0.06182449    -0.46200
C1499       C  0.67670680  0.50182849  0.05612531    -0.05400
C1500       C  0.65529983  0.47568358  0.07198679    -0.22800
H1501       H  0.60932475  0.44437045  0.12127761     0.19000
H1502       H  0.65182349  0.05453850  0.09960644     0.17800
H1503       H  0.61822173  0.04881400  0.15923890     0.14100
H1504       H  0.65303506  0.45367940  0.07022699     0.13900
H1505       H  0.58402929  0.45415388  0.17578988     0.32100
H1506       H  0.68743618  0.04597842  0.05369290     0.34900
C1507       C  0.50951616  0.37645140  0.16598609     0.20500
C1508       C  0.52616207  0.37294872  0.13989609    -0.39400
C1509       C  0.51107453  0.34741278  0.12121667     0.19400
C1510       C  0.97633459  0.31871876  0.13347274     0.22100
C1511       C  0.96118750  0.32225975  0.16095330    -0.39900
C1512       C  0.97682815  0.34850044  0.17820481     0.20900
N1513       N  0.51894529  0.39785905  0.18841046    -0.33200
C1514       C  0.99304476  0.38575405  0.21223433    -0.10700
C1515       C  0.96878441  0.35830495  0.20617072    -0.29600
N1516       N  0.96612182  0.29597818  0.11275326    -0.46200
C1517       C  0.98856376  0.30216353  0.09036039    -0.05400
C1518       C  0.52074565  0.33658741  0.09517289    -0.22800
H1519       H  0.54926025  0.38860649  0.13492332     0.19000
H1520       H  0.93883152  0.30578632  0.16836349     0.17800
H1521       H  0.94816040  0.34692595  0.22060723     0.14100
H1522       H  0.54271975  0.34653430  0.08365598     0.13900
H1523       H  0.54015365  0.41536395  0.19016724     0.32100
H1524       H  0.94520854  0.27726338  0.11390879     0.34900
C1525       C  0.49702126  0.33869735  0.40936728     0.20500
C1526       C  0.51465483  0.36281411  0.38815953    -0.39400
C1527       C  0.49966346  0.37204558  0.36815454     0.19400
C1528       C  0.96795470  0.35925565  0.36887620     0.22100
C1529       C  0.95181206  0.33230755  0.38695346    -0.39900
C1530       C  0.96731539  0.32659706  0.41034169     0.20900
N1531       N  0.50627948  0.32586031  0.43060751    -0.33200
C1532       C  0.98417546  0.30840959  0.44696605    -0.10700
C1533       C  0.95888069  0.30238235  0.43115796    -0.29600
N1534       N  0.95950461  0.36892438  0.34326662    -0.46200
C1535       C  0.98337616  0.39487218  0.33253851    -0.05400
C1536       C  0.51051186  0.39367651  0.34409367    -0.22800
H1537       H  0.53841436  0.37348722  0.38709261     0.19000
H1538       H  0.92917731  0.31665334  0.38259307     0.17800
H1539       H  0.93753209  0.28260849  0.43383006     0.14100
H1540       H  0.53337053  0.40737918  0.33587680     0.13900
H1541       H  0.52808267  0.33200822  0.43456229     0.32100
H1542       H  0.93943658  0.35761422  0.33241156     0.34900
C1543       C  0.49675497  0.17403977  0.39952216     0.20500
C1544       C  0.51354954  0.17105052  0.37357411    -0.39400
C1545       C  0.49920409  0.14533947  0.35539448     0.19400
C1546       C  0.96926398  0.12347271  0.36883265     0.22100
C1547       C  0.95301460  0.13397798  0.38771980    -0.39900
C1548       C  0.96927690  0.15755490  0.40846476     0.20900
N1549       N  0.50560149  0.19675126  0.42010229    -0.35000
C1550       C  0.98644711  0.19474622  0.44268433    -0.10700
C1551       C  0.96061581  0.17320838  0.42956439    -0.29600
N1552       N  0.95977652  0.10334462  0.34496443    -0.46200
C1553       C  0.98390562  0.10243220  0.33214082    -0.05400
C1554       C  0.50937711  0.13667717  0.32843769    -0.22800
H1555       H  0.53618830  0.18773137  0.36775583     0.19000
H1556       H  0.92960842  0.12495141  0.38587284     0.17800
H1557       H  0.93854071  0.16958562  0.43470002     0.14100
H1558       H  0.53102686  0.14866598  0.31614914     0.13900
H1559       H  0.52643081  0.21554305  0.41991851     0.32100
H1560       H  0.93869015  0.09259446  0.33636050     0.34900
C1561       C  0.00447723  0.14377124  0.16602565     0.20500
C1562       C  0.53129076  0.17007115  0.13429477    -0.39400
C1563       C  0.00252660  0.16956335  0.11925008     0.19400
C1564       C  0.97408342  0.16278429  0.12901732     0.22100
C1565       C  0.95991844  0.14669558  0.15801699    -0.39900
C1566       C  0.97633383  0.13774911  0.17622799     0.20900
N1567       N  0.52453624  0.13776700  0.18187614    -0.33200
C1568       C  0.99422253  0.12037841  0.21217161    -0.10700
C1569       C  0.96957196  0.12296568  0.20591952    -0.29600
N1570       N  0.96379760  0.17511751  0.10831262    -0.46200
C1571       C  0.98602817  0.19032576  0.08552482    -0.05400
C1572       C  0.52415012  0.19904093  0.08944982    -0.22800
H1573       H  0.55504983  0.18251679  0.13370818     0.19000
H1574       H  0.93797591  0.14203914  0.16615158     0.17800
H1575       H  0.94938406  0.11490048  0.22103196     0.14100
H1576       H  0.54647498  0.21604518  0.08278721     0.13900
H1577       H  0.54637960  0.14580698  0.18738538     0.32100
H1578       H  0.94339518  0.17432712  0.11035466     0.34900
C1579       C  0.84566144  0.35166814  0.15369498     0.20500
C1580       C  0.81860416  0.33969143  0.13962970    -0.39400
C1581       C  0.81462328  0.32022196  0.11433215     0.19400
C1582       C  0.83587713  0.31288606  0.10380635     0.22100
C1583       C  0.86327834  0.32503282  0.11803306    -0.39900
C1584       C  0.86738801  0.34489401  0.14352870     0.20900
N1585       N  0.85438503  0.37093995  0.17781922    -0.33200
C1586       C  0.88197042  0.37694163  0.18364239    -0.10700
C1587       C  0.89109369  0.36108477  0.16261976    -0.29600
N1588       N  0.82662284  0.29445230  0.07847257    -0.46200
C1589       C  0.79955141  0.29057019  0.07289382    -0.05400
C1590       C  0.79137961  0.30619986  0.09489000    -0.22800
H1591       H  0.80195445  0.34549555  0.14756940     0.19000
H1592       H  0.88016430  0.31971201  0.10966107     0.17800
H1593       H  0.91191590  0.36122712  0.16148174     0.14100
H1594       H  0.77138149  0.30770384  0.09597819     0.13900
H1595       H  0.84216279  0.37962773  0.18984709     0.32100
H1596       H  0.83833746  0.28590826  0.06513163     0.34900
C1597       C  0.85189617  0.37729061  0.34544943     0.20500
C1598       C  0.83016062  0.37163396  0.37047391    -0.39400
C1599       C  0.82476833  0.34885172  0.39312152     0.19400
C1600       C  0.83966304  0.33277801  0.39075528     0.22100
C1601       C  0.86102649  0.33816119  0.36558296    -0.39900
C1602       C  0.86659395  0.36104527  0.34324395     0.20900
N1603       N  0.86013764  0.39660298  0.31991646    -0.33200
C1604       C  0.88054298  0.39288003  0.30169127    -0.10700
C1605       C  0.88457511  0.37044327  0.31520566    -0.29600
N1606       N  0.82940465  0.31118761  0.41395821    -0.46200
C1607       C  0.80761486  0.31325067  0.43121153    -0.05400
C1608       C  0.80422322  0.33666098  0.41910683    -0.22800
H1609       H  0.81797045  0.38366169  0.37185474     0.19000
H1610       H  0.87210458  0.32506674  0.36317087     0.17800
H1611       H  0.89757059  0.36096355  0.30475048     0.14100
H1612       H  0.78794290  0.34292701  0.42718625     0.13900
H1613       H  0.85101037  0.40991334  0.31411095     0.32100
H1614       H  0.83595511  0.29518876  0.41694952     0.34900
C1615       C  0.67071331  0.18964163  0.38411547     0.20500
C1616       C  0.64622417  0.18312200  0.36637548    -0.39400
C1617       C  0.64183375  0.16440161  0.33993292     0.19400
C1618       C  0.66056851  0.15332345  0.33138856     0.22100
C1619       C  0.68516994  0.15987536  0.34914552    -0.39900
C1620       C  0.68935395  0.17829412  0.37596691     0.20900
N1621       N  0.67893960  0.20597564  0.41099809    -0.33200
C1622       C  0.70288230  0.20488020  0.42029132    -0.10700
C1623       C  0.71007550  0.18782124  0.39904190    -0.29600
N1624       N  0.65034384  0.13449893  0.30656879    -0.46200
C1625       C  0.62445340  0.13288948  0.29971618    -0.05400
C1626       C  0.61884080  0.15182794  0.31989094    -0.22800
H1627       H  0.63115024  0.19127243  0.37327597     0.19000
H1628       H  0.69946857  0.15060966  0.34312821     0.17800
H1629       H  0.72800926  0.18303160  0.40034185     0.14100
H1630       H  0.60005923  0.15536488  0.32124839     0.13900
H1631       H  0.66868891  0.21691285  0.42253368     0.32100
H1632       H  0.65955638  0.12216789  0.29610195     0.34900
C1633       C  0.61964229  0.12529725  0.13814029     0.20500
C1634       C  0.62301275  0.14444179  0.11201640    -0.39400
C1635       C  0.64953681  0.15562781  0.09278878     0.19400
C1636       C  0.67099570  0.14821606  0.09903671     0.22100
C1637       C  0.66781707  0.12949470  0.12533116    -0.39900
C1638       C  0.64141052  0.11839879  0.14450854     0.20900
N1639       N  0.59838558  0.11488298  0.16242214    -0.33200
C1640       C  0.60684177  0.10151486  0.18448403    -0.10700
C1641       C  0.63360401  0.10345251  0.17404607    -0.29600
N1642       N  0.69497597  0.16328033  0.07877368    -0.46200
C1643       C  0.68900500  0.18079893  0.05974836    -0.05400
C1644       C  0.66082803  0.17658343  0.06765305    -0.22800
H1645       H  0.60680229  0.15121557  0.10787952     0.19000
H1646       H  0.68522295  0.12499611  0.13133193     0.17800
H1647       H  0.64717372  0.09771972  0.18804755     0.14100
H1648       H  0.65051585  0.18820940  0.05732288     0.13900
H1649       H  0.58106211  0.11956151  0.16559317     0.32100
H1650       H  0.71477143  0.16287768  0.07905169     0.34900
O1651       O  0.76129570  0.28349281  0.53869573    -0.72800
O1652       O  0.71497697  0.23673779  0.96031766    -0.73800
O1653       O  0.70776405  0.22964616  0.53172954    -0.62400
O1654       O  0.76813449  0.29035963  0.96918981    -0.70800
O1655       O  0.79207196  0.26481455  0.96225862    -0.70400
O1656       O  0.73332483  0.20559578  0.52793141    -0.61600
O1657       O  0.73897107  0.21111590  0.95570201    -0.74100
O1658       O  0.78724775  0.25995098  0.53263567    -0.72900
Cu1659     Cu  0.73649620  0.26235702  0.50114501     1.04600
Cu1660     Cu  0.76369288  0.23220662  0.99329942     1.04300
C1661       C  0.78188514  0.27880033  0.54737064     0.93400
C1662       C  0.71979059  0.21736408  0.94581593     0.92500
C1663       C  0.71112769  0.20761076  0.53965023     0.84700
C1664       C  0.78933107  0.28758772  0.95592972     0.90900
O1665       O  0.51332000  0.29354319  0.97753781    -0.72800
O1666       O  0.51323633  0.23212839  0.54309583    -0.73800
O1667       O  0.51384851  0.23794872  0.97325292    -0.62400
O1668       O  0.51312034  0.28772121  0.54696473    -0.70800
O1669       O  0.97102947  0.26958454  0.55348486    -0.70400
O1670       O  0.95658316  0.20581302  0.98316388    -0.61600
O1671       O  0.97222279  0.21511374  0.55047000    -0.74100
O1672       O  0.95783397  0.26212909  0.98557304    -0.72900
Cu1673     Cu  0.51220197  0.26064561  0.51036528     1.04600
Cu1674     Cu  0.96631330  0.24056322  0.51825928     1.04300
C1675       C  0.98191245  0.28241865  0.97186961     0.93400
C1676       C  0.99758234  0.21903170  0.55655634     0.92500
C1677       C  0.98033877  0.20891744  0.96881009     0.84700
C1678       C  0.99606576  0.29085813  0.56050408     0.90900
O1679       O  0.77393079  0.03266312  0.52987998    -0.72800
O1680       O  0.73235891  0.02658280  0.95163127    -0.73800
O1681       O  0.71623673  0.02581340  0.52266890    -0.62400
O1682       O  0.78785659  0.03209771  0.96014215    -0.70800
O1683       O  0.76669710  0.48324129  0.96645546    -0.70400
O1684       O  0.70454349  0.48082471  0.52501887    -0.61600
O1685       O  0.71063049  0.47741676  0.95741826    -0.74100
O1686       O  0.75966888  0.48340410  0.53208583    -0.72900
Cu1687     Cu  0.75611517  0.03152635  0.99039754     1.04600
Cu1688     Cu  0.73516112  0.47934933  0.49415650     1.04300
C1689       C  0.77917280  0.50878784  0.54155407     0.93400
C1690       C  0.71403856  0.50086769  0.94287357     0.92500
C1691       C  0.70614140  0.50533260  0.53409716     0.84700
C1692       C  0.78656269  0.50842332  0.95462964     0.90900
C1693       C  0.98875240  0.40654599  0.79847049     0.86600
C1694       C  0.51399250  0.44190829  0.79576712    -0.53600
C1695       C  0.52054238  0.45370862  0.76471949     0.09500
C1696       C  0.99880725  0.43652895  0.74373085     0.20500
C1697       C  0.96317746  0.41119052  0.79004385    -0.54400
C1698       C  0.96790765  0.42656396  0.76113331     0.09600
C1699       C  0.99449714  0.39180065  0.76854348    -0.53900
C1700       C  0.99929106  0.40699620  0.73995503     0.10200
H1701       H  0.52788928  0.45327042  0.81554557     0.14700
H1702       H  0.00286603  0.44900925  0.72035951     0.00500
H1703       H  0.94265825  0.40169601  0.80449763     0.15000
H1704       H  0.99294338  0.36997643  0.76966018     0.14800
C1705       C  0.98675017  0.09390245  0.79025684     0.86600
C1706       C  0.96044058  0.06582183  0.77918403    -0.53600
C1707       C  0.96605975  0.05518797  0.75052434     0.09500
C1708       C  0.99835443  0.07427125  0.73568072     0.20500
C1709       C  0.51290285  0.08404409  0.79324524    -0.54400
C1710       C  0.52006488  0.07652536  0.76335534     0.09600
C1711       C  0.99633450  0.11587225  0.76106593    -0.53900
C1712       C  0.00187948  0.10559216  0.73248327     0.10200
H1713       H  0.93912628  0.05585529  0.79211263     0.14700
H1714       H  0.00292535  0.06574189  0.71247216     0.00500
H1715       H  0.52583920  0.08735218  0.81421960     0.15000
H1716       H  0.99604061  0.13682307  0.76237671     0.14800
C1717       C  0.60291262  0.11225379  0.77252867     0.86600
C1718       C  0.57235911  0.10865339  0.77390098    -0.53600
C1719       C  0.55227083  0.08588988  0.75622112     0.09500
C1720       C  0.56679250  0.07061694  0.73483302     0.20500
C1721       C  0.59818929  0.08116240  0.78003758    -0.54400
C1722       C  0.58094042  0.05917440  0.75938293     0.09600
C1723       C  0.61286468  0.11815056  0.73668359    -0.53900
C1724       C  0.59415521  0.09689869  0.71665229     0.10200
H1725       H  0.56665935  0.12285943  0.78841737     0.14700
H1726       H  0.55170603  0.05329459  0.71857307     0.00500
H1727       H  0.60923789  0.07795515  0.79980143     0.15000
H1728       H  0.63325745  0.13740972  0.72777360     0.14800
C1729       C  0.60597939  0.99971056  0.76604890     0.86600
C1730       C  0.60356793  0.02759404  0.77315421    -0.53600
C1731       C  0.58259306  0.03051410  0.75724242     0.09500
C1732       C  0.56478415  0.00322740  0.73547502     0.20500
C1733       C  0.57309416  0.47329877  0.77268649    -0.54400
C1734       C  0.55243589  0.47595820  0.75613791     0.09600
C1735       C  0.61003972  0.99962439  0.72918219    -0.53900
C1736       C  0.58859062  0.00107063  0.71297166     0.10200
H1737       H  0.61857677  0.04404041  0.78901487     0.14700
H1738       H  0.54741759  0.00437322  0.72222881     0.00500
H1739       H  0.56721448  0.45421468  0.78833469     0.15000
H1740       H  0.62789853  0.99758429  0.71681432     0.14800
C1741       C  0.89685333  0.01322456  0.70419826     0.86600
C1742       C  0.92904802  0.03679406  0.70830643    -0.53600
C1743       C  0.94125336  0.03072943  0.73408360     0.09500
C1744       C  0.92000551  0.00084230  0.75235686     0.20500
C1745       C  0.89842304  0.48314738  0.70752232    -0.54400
C1746       C  0.91046356  0.47623116  0.73260425     0.09600
C1747       C  0.88111635  0.01072807  0.73741589    -0.53900
C1748       C  0.89304806  0.00441282  0.76259601     0.10200
H1749       H  0.94010466  0.05732660  0.69412202     0.14700
H1750       H  0.92976562  0.99595806  0.77314537     0.00500
H1751       H  0.88914862  0.46939514  0.68684544     0.15000
H1752       H  0.86257487  0.01477853  0.74090329     0.14800
C1753       C  0.89844268  0.39747750  0.71470498     0.86600
C1754       C  0.89967986  0.42714188  0.70934446    -0.53600
C1755       C  0.91076484  0.44703541  0.73384544     0.09500
C1756       C  0.92097464  0.43460772  0.76188153     0.20500
C1757       C  0.93040013  0.40576097  0.71985741    -0.54400
C1758       C  0.94236044  0.42496748  0.74498445     0.09600
C1759       C  0.88213298  0.38581367  0.74781207    -0.53900
C1760       C  0.89374584  0.40471438  0.77263451     0.10200
H1761       H  0.89166374  0.43096990  0.68726408     0.14700
H1762       H  0.93045798  0.44993301  0.78228907     0.00500
H1763       H  0.94155131  0.39549672  0.70685158     0.15000
H1764       H  0.86389560  0.36331108  0.75171975     0.14800
C1765       C  0.82862158  0.02823161  0.59869791     0.20500
C1766       C  0.85564830  0.04559414  0.61314966    -0.39400
C1767       C  0.86213901  0.03109586  0.63781752     0.19400
C1768       C  0.84382811  0.50156126  0.65304870     0.22100
C1769       C  0.81684035  0.48520985  0.63892868    -0.39900
C1770       C  0.81290114  0.49837914  0.61143386     0.20900
N1771       N  0.81703551  0.03630640  0.57481639    -0.33200
C1772       C  0.79743488  0.51037072  0.56836808    -0.10700
C1773       C  0.78948461  0.48797573  0.59189259    -0.29600
N1774       N  0.85264450  0.49338462  0.67907707    -0.46200
C1775       C  0.87949986  0.01627277  0.67757237    -0.05400
C1776       C  0.88620680  0.04070974  0.65700051    -0.22800
H1777       H  0.87042922  0.06853630  0.60576158     0.19000
H1778       H  0.80016010  0.46363644  0.64858274     0.17800
H1779       H  0.76925228  0.46694698  0.59439553     0.14100
H1780       H  0.90561117  0.06244797  0.65641697     0.13900
H1781       H  0.82632805  0.05702719  0.56281992     0.32100
H1782       H  0.84054014  0.47368734  0.69291037     0.34900
C1783       C  0.83268500  0.99549608  0.89215252     0.20500
C1784       C  0.84108877  0.97836381  0.87216189    -0.39400
C1785       C  0.85937109  0.99320192  0.84443934     0.19400
C1786       C  0.86804922  0.02264998  0.83699933     0.22100
C1787       C  0.86004651  0.03987396  0.85716435    -0.39900
C1788       C  0.84218543  0.02519942  0.88507038     0.20900
N1789       N  0.81435306  0.48713693  0.92352503    -0.33200
C1790       C  0.80943071  0.51012702  0.93087312    -0.10700
C1791       C  0.82632153  0.53460365  0.91013920    -0.29600
N1792       N  0.88232297  0.03057359  0.80756717    -0.46200
C1793       C  0.88333696  0.00626776  0.79638661    -0.05400
C1794       C  0.86942461  0.98255078  0.81871790    -0.22800
H1795       H  0.83304672  0.95493296  0.87712181     0.19000
H1796       H  0.86625843  0.06267138  0.85087121     0.17800
H1797       H  0.82581775  0.55536006  0.90918490     0.14100
H1798       H  0.87042007  0.46223034  0.82411745     0.13900
H1799       H  0.80385967  0.46585440  0.93434827     0.32100
H1800       H  0.88975082  0.05086977  0.79513280     0.34900
C1801       C  0.64220183  0.48160718  0.82853075     0.20500
C1802       C  0.64362532  0.46567995  0.85529566    -0.39400
C1803       C  0.66755080  0.48134515  0.87454359     0.19400
C1804       C  0.68841660  0.51071427  0.86768418     0.22100
C1805       C  0.68817659  0.02924666  0.83943355    -0.39900
C1806       C  0.66604482  0.01311011  0.81800261     0.20900
N1807       N  0.62571038  0.97349681  0.80140422    -0.33200
C1808       C  0.62982465  0.99806725  0.78453893    -0.10700
C1809       C  0.65567400  0.02300241  0.79351960    -0.29600
N1810       N  0.70765586  0.52127004  0.89110750    -0.46200
C1811       C  0.69902416  0.49843645  0.91292105    -0.05400
C1812       C  0.67426373  0.47302892  0.90326484    -0.22800
H1813       H  0.62662475  0.44314299  0.86148558     0.19000
H1814       H  0.70192893  0.05316087  0.83708880     0.17800
H1815       H  0.66406272  0.04593303  0.78576702     0.14100
H1816       H  0.66222095  0.45174812  0.91610988     0.13900
H1817       H  0.60835899  0.95176987  0.80060217     0.32100
H1818       H  0.72374436  0.04525585  0.89356587     0.34900
C1819       C  0.61213337  0.48950298  0.63521273     0.20500
C1820       C  0.62010976  0.47246613  0.61445383    -0.39400
C1821       C  0.64483379  0.48859252  0.59287754     0.19400
C1822       C  0.64473723  0.01137978  0.58569379     0.22100
C1823       C  0.63474716  0.02790210  0.60453522    -0.39900
C1824       C  0.61284555  0.01185881  0.62919964     0.20900
N1825       N  0.59281917  0.47955540  0.66133673    -0.33200
C1826       C  0.58842719  0.99788162  0.67734414    -0.10700
C1827       C  0.60383895  0.02224591  0.65601147    -0.29600
N1828       N  0.66793209  0.02203791  0.56381430    -0.46200
C1829       C  0.68348897  0.50472026  0.55788055    -0.05400
C1830       C  0.65921971  0.47889649  0.57102614    -0.22800
H1831       H  0.60871761  0.44838629  0.61603365     0.19000
H1832       H  0.64497285  0.05188297  0.60195417     0.17800
H1833       H  0.61210909  0.04517474  0.66194051     0.14100
H1834       H  0.65330265  0.45607423  0.56585733     0.13900
H1835       H  0.58118000  0.45754715  0.67008709     0.32100
H1836       H  0.68139945  0.04424036  0.55633810     0.34900
C1837       C  0.50612724  0.37061889  0.66880682     0.20500
C1838       C  0.52115206  0.36811753  0.64045358    -0.39400
C1839       C  0.50667151  0.34113538  0.62390469     0.19400
C1840       C  0.98352049  0.32837515  0.62768304     0.22100
C1841       C  0.96698790  0.33256095  0.65309644    -0.39900
C1842       C  0.98247239  0.35754911  0.67200016     0.20900
N1843       N  0.51515307  0.39389201  0.68890334    -0.33200
C1844       C  0.99803512  0.39231882  0.70874025    -0.10700
C1845       C  0.97324332  0.36680174  0.69940683    -0.29600
N1846       N  0.97379108  0.30611846  0.60651853    -0.46200
C1847       C  0.99751828  0.31083721  0.58701376    -0.05400
C1848       C  0.51487457  0.33161007  0.59560665    -0.22800
H1849       H  0.54251405  0.38592429  0.63184038     0.19000
H1850       H  0.94379268  0.31726179  0.65803340     0.17800
H1851       H  0.95169087  0.35563118  0.71199393     0.14100
H1852       H  0.53507991  0.34370989  0.58061507     0.13900
H1853       H  0.53487221  0.41398374  0.68666970     0.32100
H1854       H  0.95230051  0.28859757  0.60559135     0.34900
C1855       C  0.49877195  0.34839855  0.91637341     0.20500
C1856       C  0.51490129  0.37489191  0.89794348    -0.39400
C1857       C  0.49924943  0.38090208  0.87530123     0.19400
C1858       C  0.97031946  0.35796118  0.86976507     0.22100
C1859       C  0.95266766  0.33628661  0.89388759    -0.39900
C1860       C  0.96737698  0.32565206  0.91297541     0.20900
N1861       N  0.50907854  0.33691421  0.93807860    -0.33200
C1862       C  0.98165577  0.30273165  0.94692134    -0.10700
C1863       C  0.95699348  0.30419350  0.93770406    -0.29600
N1864       N  0.96183713  0.37111969  0.84765398    -0.46200
C1865       C  0.98659098  0.38915495  0.82898694    -0.05400
C1866       C  0.50919305  0.40309639  0.85187063    -0.22800
H1867       H  0.53819818  0.38933097  0.90031320     0.19000
H1868       H  0.92923965  0.32807042  0.89728401     0.17800
H1869       H  0.93452323  0.29110421  0.94748530     0.14100
H1870       H  0.53188743  0.41993647  0.84690505     0.13900
H1871       H  0.53068543  0.34623897  0.94503533     0.32100
H1872       H  0.94050715  0.36718882  0.84480991     0.34900
C1873       C  0.50141410  0.17349622  0.90482724     0.20500
C1874       C  0.51827098  0.16580485  0.88333354    -0.39400
C1875       C  0.50245527  0.14164397  0.86340589     0.19400
C1876       C  0.96769110  0.12357006  0.86255486     0.22100
C1877       C  0.94995585  0.12800960  0.88664525    -0.39900
C1878       C  0.96480680  0.15264863  0.90677113     0.20900
N1879       N  0.51145027  0.19612986  0.92562024    -0.35000
C1880       C  0.97950299  0.18890350  0.94241712    -0.10700
C1881       C  0.95455150  0.16384164  0.93196852    -0.29600
N1882       N  0.95917019  0.10266285  0.83940642    -0.46200
C1883       C  0.98414154  0.10879957  0.82120169    -0.05400
C1884       C  0.51240119  0.13017952  0.83876056    -0.22800
H1885       H  0.54205741  0.17813888  0.88176848     0.19000
H1886       H  0.92638306  0.11363886  0.88925556     0.17800
H1887       H  0.93202879  0.15508914  0.94143071     0.14100
H1888       H  0.53506211  0.13837345  0.83010388     0.13900
H1889       H  0.53342534  0.21120001  0.92930732     0.32100
H1890       H  0.93773651  0.08611475  0.83567295     0.34900
C1891       C  0.01589193  0.14902725  0.65934954     0.20500
C1892       C  0.52212881  0.15736404  0.63050095    -0.39400
C1893       C  0.01636102  0.17911473  0.61517596     0.19400
C1894       C  0.98599755  0.16566797  0.61864020     0.22100
C1895       C  0.96948888  0.14380261  0.64265316    -0.39900
C1896       C  0.98558588  0.13617686  0.66283207     0.20900
N1897       N  0.51803376  0.12864686  0.68043205    -0.33200
C1898       C  0.00157031  0.11933931  0.70128410    -0.10700
C1899       C  0.97624383  0.11761099  0.68980510    -0.29600
N1900       N  0.97573757  0.17770140  0.59768174    -0.46200
C1901       C  0.99962072  0.19928263  0.58079464    -0.05400
C1902       C  0.51501642  0.18759028  0.58686245    -0.22800
H1903       H  0.54426100  0.16246064  0.62265050     0.19000
H1904       H  0.94583551  0.13398777  0.64595204     0.17800
H1905       H  0.95415290  0.10589976  0.70096482     0.14100
H1906       H  0.53591374  0.19749035  0.57287581     0.13900
H1907       H  0.53875417  0.13017772  0.67933198     0.32100
H1908       H  0.95379774  0.17213424  0.59568070     0.34900
C1909       C  0.84507875  0.35214088  0.65848845     0.20500
C1910       C  0.81878404  0.34236906  0.64320722    -0.39400
C1911       C  0.81461730  0.32363091  0.61708589     0.19400
C1912       C  0.83485527  0.31472431  0.60719558     0.22100
C1913       C  0.86151006  0.32474884  0.62252143    -0.39900
C1914       C  0.86600160  0.34417949  0.64852313     0.20900
N1915       N  0.85421484  0.37098518  0.68298333    -0.33200
C1916       C  0.88154037  0.37604776  0.68872203    -0.10700
C1917       C  0.88977560  0.35944837  0.66779651    -0.29600
N1918       N  0.82556353  0.29706727  0.58129681    -0.46200
C1919       C  0.79954095  0.29526163  0.57461515    -0.05400
C1920       C  0.79205117  0.31154185  0.59644749    -0.22800
H1921       H  0.80295947  0.34940849  0.65073950     0.19000
H1922       H  0.87772254  0.31840983  0.61439166     0.17800
H1923       H  0.91024740  0.35887199  0.66651415     0.14100
H1924       H  0.77279702  0.31435797  0.59697306     0.13900
H1925       H  0.84270598  0.38055236  0.69478227     0.32100
H1926       H  0.83651394  0.28741187  0.56851992     0.34900
C1927       C  0.86016929  0.37912374  0.85239991     0.20500
C1928       C  0.84047534  0.37493491  0.87920730    -0.39400
C1929       C  0.83183526  0.34926688  0.89865826     0.19400
C1930       C  0.84210330  0.32945913  0.89183148     0.22100
C1931       C  0.86145998  0.33350154  0.86504104    -0.39900
C1932       C  0.87002721  0.35899048  0.84575405     0.20900
N1933       N  0.86947028  0.39991230  0.82828907    -0.33200
C1934       C  0.88527431  0.39280724  0.80635408    -0.10700
C1935       C  0.88584294  0.36731350  0.81641560    -0.29600
N1936       N  0.82922433  0.30582050  0.91234960    -0.46200
C1937       C  0.81027824  0.31024723  0.93226223    -0.05400
C1938       C  0.81136911  0.33722103  0.92470076    -0.22800
H1939       H  0.83170088  0.38989175  0.88384971     0.19000
H1940       H  0.86845513  0.31734590  0.85892442     0.17800
H1941       H  0.89477038  0.35519044  0.80276058     0.14100
H1942       H  0.79802897  0.34608405  0.93573846     0.13900
H1943       H  0.86318933  0.41605891  0.82548957     0.32100
H1944       H  0.83206734  0.28708950  0.91175820     0.34900
C1945       C  0.66960280  0.18684717  0.88268629     0.20500
C1946       C  0.64419295  0.17976717  0.86647113    -0.39400
C1947       C  0.64064437  0.16375852  0.83786518     0.19400
C1948       C  0.66086720  0.15549827  0.82608236     0.22100
C1949       C  0.68629235  0.16240131  0.84247322    -0.39900
C1950       C  0.68977504  0.17829172  0.87133798     0.20900
N1951       N  0.67770413  0.20162081  0.91055924    -0.33200
C1952       C  0.70313438  0.20236546  0.91733727    -0.10700
C1953       C  0.71135573  0.18791410  0.89349722    -0.29600
N1954       N  0.65109242  0.13842575  0.79984286    -0.46200
C1955       C  0.62404322  0.13503902  0.79534966    -0.05400
C1956       C  0.61720969  0.15122115  0.81842279    -0.22800
H1957       H  0.62797750  0.18566864  0.87588485     0.19000
H1958       H  0.70181335  0.15530358  0.83383779     0.17800
H1959       H  0.73065483  0.18516348  0.89234600     0.14100
H1960       H  0.59710693  0.15222795  0.82253942     0.13900
H1961       H  0.66650474  0.21051550  0.92427246     0.32100
H1962       H  0.66119197  0.12783578  0.78721941     0.34900
C1963       C  0.61661642  0.12477540  0.63613244     0.20500
C1964       C  0.62155104  0.14624845  0.61204378    -0.39400
C1965       C  0.64855035  0.15805561  0.59370244     0.19400
C1966       C  0.66899335  0.14892861  0.59862194     0.22100
C1967       C  0.66423531  0.12775253  0.62291080    -0.39900
C1968       C  0.63741095  0.11623759  0.64149257     0.20900
N1969       N  0.59523519  0.11419351  0.66024800    -0.33200
C1970       C  0.60269689  0.09936732  0.68155999    -0.10700
C1971       C  0.62886516  0.10022933  0.67044383    -0.29600
N1972       N  0.69362784  0.16481664  0.57943027    -0.46200
C1973       C  0.68900704  0.18450408  0.56246466    -0.05400
C1974       C  0.66114079  0.18095182  0.57072923    -0.22800
H1975       H  0.60622893  0.15441900  0.60906640     0.19000
H1976       H  0.68092556  0.12196408  0.62823598     0.17800
H1977       H  0.64211407  0.09384131  0.68415662     0.14100
H1978       H  0.65168109  0.19392359  0.56174408     0.13900
H1979       H  0.57896275  0.12027745  0.66430525     0.32100
H1980       H  0.71280934  0.16316868  0.57884199     0.34900
O1981       O  0.76455208  0.78560004  0.03537146    -0.72800
O1982       O  0.71479437  0.73656731  0.45807494    -0.73800
O1983       O  0.71055895  0.73260030  0.02834349    -0.62400
O1984       O  0.76790115  0.78972176  0.46686333    -0.70800
O1985       O  0.79200111  0.76431378  0.46033357    -0.70400
O1986       O  0.73564802  0.70807108  0.02393468    -0.61600
O1987       O  0.73871642  0.71083236  0.45358752    -0.74100
O1988       O  0.79020049  0.76183021  0.02836928    -0.72900
Cu1989     Cu  0.73927706  0.76531511  0.99790794     1.04600
Cu1990     Cu  0.76300665  0.73159164  0.49125218     1.04300
C1991       C  0.78519083  0.78076824  0.04351784     0.93400
C1992       C  0.71968956  0.71724627  0.44365821     0.92500
C1993       C  0.71391007  0.71054862  0.03623076     0.84700
C1994       C  0.78927430  0.78709383  0.45388248     0.90900
O1995       O  0.51306624  0.79138698  0.47554263    -0.72800
O1996       O  0.50983541  0.73071287  0.04412481    -0.73800
O1997       O  0.51356812  0.73577392  0.47310802    -0.62400
O1998       O  0.50918792  0.78571176  0.04409716    -0.70800
O1999       O  0.96999754  0.77174012  0.05173148    -0.70400
O2000       O  0.96073025  0.70915818  0.48049699    -0.61600
O2001       O  0.97174969  0.71756990  0.04917436    -0.74100
O2002       O  0.95916962  0.76407619  0.48315376    -0.72900
Cu2003     Cu  0.50821714  0.75719913  0.00963651     1.04600
Cu2004     Cu  0.96606124  0.74286073  0.01639133     1.04300
C2005       C  0.98265984  0.78539334  0.46962787     0.93400
C2006       C  0.99712791  0.72198785  0.05597421     0.92500
C2007       C  0.98458013  0.71339772  0.46532995     0.84700
C2008       C  0.99475774  0.79339479  0.05893320     0.90900
O2009       O  0.77870283  0.53536636  0.03040331    -0.72800
O2010       O  0.73453244  0.52843819  0.45306342    -0.73800
O2011       O  0.72131344  0.52907478  0.02275362    -0.62400
O2012       O  0.78874980  0.53031747  0.45932733    -0.70800
O2013       O  0.76162537  0.98140652  0.46500818    -0.70400
O2014       O  0.70179234  0.97809386  0.02286252    -0.61600
O2015       O  0.70536653  0.97482366  0.45737125    -0.74100
O2016       O  0.75803161  0.98402801  0.03252289    -0.72900
Cu2017     Cu  0.75909000  0.53211422  0.49079739     1.04600
Cu2018     Cu  0.73438355  0.97889855  0.99345442     1.04300
C2019       C  0.77640091  0.00967865  0.04255091     0.93400
C2020       C  0.70873369  0.99830267  0.44298284     0.92500
C2021       C  0.70158263  0.00194661  0.03119775     0.84700
C2022       C  0.78130243  0.00664524  0.45309885     0.90900
C2023       C  0.98940490  0.91226526  0.30005148     0.86600
C2024       C  0.51445244  0.94035013  0.29211020    -0.53600
C2025       C  0.52057854  0.95238205  0.26112118     0.09500
C2026       C  0.99882001  0.93761893  0.24233536     0.20500
C2027       C  0.96463263  0.91782835  0.29080769    -0.54400
C2028       C  0.96879063  0.93038012  0.26025213     0.09600
C2029       C  0.99295083  0.89418720  0.27201122    -0.53900
C2030       C  0.99753172  0.90712094  0.24186625     0.10200
H2031       H  0.52879823  0.95145433  0.31162781     0.14700
H2032       H  0.00258878  0.94820165  0.21780032     0.00500
H2033       H  0.94471145  0.91044736  0.30609608     0.15000
H2034       H  0.99064470  0.87223676  0.27565210     0.14800
C2035       C  0.99053271  0.59697608  0.28815780     0.86600
C2036       C  0.96437870  0.56794769  0.27853168    -0.53600
C2037       C  0.96960083  0.55689747  0.24991755     0.09500
C2038       C  0.00113321  0.57654733  0.23354758     0.20500
C2039       C  0.51593778  0.58335026  0.29211089    -0.54400
C2040       C  0.52226736  0.57710838  0.26109627     0.09600
C2041       C  0.99832114  0.61797654  0.25842058    -0.53900
C2042       C  0.00333443  0.60730426  0.22988798     0.10200
H2043       H  0.94341184  0.55769817  0.29225382     0.14700
H2044       H  0.00531328  0.56777428  0.21031234     0.00500
H2045       H  0.53003008  0.58672055  0.31198222     0.15000
H2046       H  0.99752890  0.63868303  0.25948965     0.14800
C2047       C  0.60452044  0.61440241  0.26960696     0.86600
C2048       C  0.57434978  0.61161381  0.26927488    -0.53600
C2049       C  0.55452675  0.58854420  0.25169845     0.09500
C2050       C  0.56928625  0.57287621  0.23140611     0.20500
C2051       C  0.59896109  0.58313069  0.27797759    -0.54400
C2052       C  0.58227876  0.56121153  0.25702082     0.09600
C2053       C  0.61567907  0.62003345  0.23422346    -0.53900
C2054       C  0.59741988  0.59889636  0.21387929     0.10200
H2055       H  0.56826941  0.62564705  0.28366968     0.14700
H2056       H  0.55458152  0.55568945  0.21476733     0.00500
H2057       H  0.60904080  0.57968688  0.29857894     0.15000
H2058       H  0.63631218  0.63925240  0.22578454     0.14800
C2059       C  0.60533117  0.50071019  0.26775903     0.86600
C2060       C  0.60391903  0.52932442  0.27289110    -0.53600
C2061       C  0.58348634  0.53232339  0.25594599     0.09500
C2062       C  0.56545630  0.50457026  0.23482562     0.20500
C2063       C  0.57290138  0.97081460  0.26741239    -0.54400
C2064       C  0.55227037  0.97425887  0.25194348     0.09600
C2065       C  0.60993241  0.49932195  0.23115838    -0.53900
C2066       C  0.58929819  0.50105900  0.21364756     0.10200
H2067       H  0.61928240  0.54618089  0.28818372     0.14700
H2068       H  0.54873315  0.50598696  0.22059020     0.00500
H2069       H  0.56697934  0.95067832  0.28116247     0.15000
H2070       H  0.62787249  0.49675608  0.21988877     0.14800
C2071       C  0.90020876  0.51420380  0.20517822     0.86600
C2072       C  0.93254112  0.53745032  0.20845187    -0.53600
C2073       C  0.94487192  0.53177810  0.23427675     0.09500
C2074       C  0.92365211  0.50227081  0.25335569     0.20500
C2075       C  0.89702722  0.98353709  0.20673470    -0.54400
C2076       C  0.90867352  0.97632858  0.23197865     0.09600
C2077       C  0.88504637  0.51264273  0.23858488    -0.53900
C2078       C  0.89711614  0.50638401  0.26371818     0.10200
H2079       H  0.94357133  0.55788624  0.19401860     0.14700
H2080       H  0.93361399  0.49760797  0.27410667     0.00500
H2081       H  0.88855121  0.97020493  0.18555984     0.15000
H2082       H  0.86654012  0.51673557  0.24214430     0.14800
C2083       C  0.89911697  0.89851786  0.21355007     0.86600
C2084       C  0.89907128  0.92765673  0.20841135    -0.53600
C2085       C  0.90971181  0.94756584  0.23292169     0.09500
C2086       C  0.92058889  0.93581652  0.26079770     0.20500
C2087       C  0.93141408  0.90791651  0.21873862    -0.54400
C2088       C  0.94278201  0.92732928  0.24387033     0.09600
C2089       C  0.88300064  0.88635745  0.24676187    -0.53900
C2090       C  0.89407970  0.90545959  0.27158239     0.10200
H2091       H  0.89045673  0.93114434  0.18659654     0.14700
H2092       H  0.92967558  0.95119070  0.28124243     0.00500
H2093       H  0.94310352  0.89789722  0.20614545     0.15000
H2094       H  0.86525997  0.86361055  0.25068071     0.14800
C2095       C  0.83324759  0.53010939  0.09900338     0.20500
C2096       C  0.86080453  0.54673763  0.11261075    -0.39400
C2097       C  0.86660013  0.53224258  0.13789511     0.19400
C2098       C  0.84158304  0.00240915  0.15357712     0.22100
C2099       C  0.81422158  0.98647154  0.14010131    -0.39900
C2100       C  0.81003521  0.99984288  0.11293873     0.20900
N2101       N  0.82207470  0.53833260  0.07481904    -0.33200
C2102       C  0.79440386  0.01182060  0.06993830    -0.10700
C2103       C  0.78640296  0.98960660  0.09371871    -0.29600
N2104       N  0.85066853  0.99392953  0.17914310    -0.46200
C2105       C  0.88304366  0.51739407  0.17849902    -0.05400
C2106       C  0.89073923  0.54137722  0.15680436    -0.22800
H2107       H  0.87642352  0.56917477  0.10425040     0.19000
H2108       H  0.79747606  0.96499335  0.14991470     0.17800
H2109       H  0.76614268  0.96861184  0.09633510     0.14100
H2110       H  0.91082947  0.56255976  0.15531927     0.13900
H2111       H  0.83219778  0.55860299  0.06181075     0.32100
H2112       H  0.83853915  0.97426035  0.19301903     0.34900
C2113       C  0.83244379  0.49305128  0.39112978     0.20500
C2114       C  0.84160189  0.47651941  0.37104075    -0.39400
C2115       C  0.86127932  0.49236775  0.34450829     0.19400
C2116       C  0.87056194  0.52217311  0.33831831     0.22100
C2117       C  0.86184151  0.53871000  0.35857493    -0.39900
C2118       C  0.84263450  0.52306433  0.38519463     0.20900
N2119       N  0.80637498  0.98421373  0.41963005    -0.33200
C2120       C  0.80356763  0.00810031  0.42866425    -0.10700
C2121       C  0.82221806  0.03316037  0.40933862    -0.29600
N2122       N  0.88598640  0.53121005  0.30962135    -0.46200
C2123       C  0.88705911  0.50723235  0.29756552    -0.05400
C2124       C  0.87217940  0.48262830  0.31867186    -0.22800
H2125       H  0.83315550  0.45288404  0.37498737     0.19000
H2126       H  0.86855789  0.56180221  0.35322180     0.17800
H2127       H  0.82381585  0.05492607  0.41004641     0.14100
H2128       H  0.86081285  0.95834548  0.31997542     0.13900
H2129       H  0.79442270  0.96250555  0.42922942     0.32100
H2130       H  0.89384823  0.55194937  0.29802323     0.34900
C2131       C  0.63993910  0.97893335  0.32614624     0.20500
C2132       C  0.64027392  0.96312697  0.35363930    -0.39400
C2133       C  0.66354264  0.97881013  0.37368537     0.19400
C2134       C  0.68474827  0.00807246  0.36688993     0.22100
C2135       C  0.68904484  0.53006344  0.34010659    -0.39900
C2136       C  0.66538730  0.51400082  0.32028277     0.20900
N2137       N  0.62276085  0.47518628  0.30715387    -0.33200
C2138       C  0.62833130  0.49893374  0.28778806    -0.10700
C2139       C  0.65551532  0.52332067  0.29464380    -0.29600
N2140       N  0.70332778  0.01866581  0.39088347    -0.46200
C2141       C  0.69397637  0.99595030  0.41296835    -0.05400
C2142       C  0.66935881  0.97058227  0.40300444    -0.22800
H2143       H  0.62295281  0.94070473  0.35972182     0.19000
H2144       H  0.70458726  0.55339375  0.33548177     0.17800
H2145       H  0.66530107  0.54571978  0.28449861     0.14100
H2146       H  0.65699565  0.94933379  0.41585676     0.13900
H2147       H  0.60449593  0.45394211  0.30823258     0.32100
H2148       H  0.72716429  0.54630769  0.39241592     0.34900
C2149       C  0.60871900  0.98490041  0.13376812     0.20500
C2150       C  0.61841322  0.96799610  0.11517628    -0.39400
C2151       C  0.64018075  0.98355113  0.09028989     0.19400
C2152       C  0.65040206  0.51452655  0.08773988     0.22100
C2153       C  0.64008626  0.53066333  0.10690405    -0.39900
C2154       C  0.61764359  0.51406933  0.13094559     0.20900
N2155       N  0.59261524  0.97654833  0.16224449    -0.33200
C2156       C  0.59105985  0.49872449  0.17787515    -0.10700
C2157       C  0.60725102  0.52365570  0.15740427    -0.29600
N2158       N  0.67353159  0.52545705  0.06567291    -0.46200
C2159       C  0.67742974  0.00013004  0.05338210    -0.05400
C2160       C  0.65639199  0.97446677  0.07042018    -0.22800
H2161       H  0.61093753  0.94482596  0.12106107     0.19000
H2162       H  0.65012995  0.55465218  0.10472815     0.17800
H2163       H  0.61474341  0.54640169  0.16380175     0.14100
H2164       H  0.65433273  0.95250622  0.06973620     0.13900
H2165       H  0.58495278  0.95611065  0.17444929     0.32100
H2166       H  0.68700083  0.54774151  0.05850966     0.34900
C2167       C  0.50375818  0.87039848  0.16342704     0.20500
C2168       C  0.51763190  0.86811215  0.13407375    -0.39400
C2169       C  0.50303146  0.84074223  0.11839274     0.19400
C2170       C  0.98225808  0.82747643  0.12974941     0.22100
C2171       C  0.96728253  0.82852796  0.15870755    -0.39900
C2172       C  0.98154068  0.85466096  0.17637425     0.20900
N2173       N  0.51335019  0.89373177  0.18340601    -0.33200
C2174       C  0.99615851  0.89060342  0.21185823    -0.10700
C2175       C  0.97357081  0.86206805  0.20601310    -0.29600
N2176       N  0.97351799  0.80474864  0.10917764    -0.46200
C2177       C  0.99557518  0.81300881  0.08576172    -0.05400
C2178       C  0.51059612  0.83094784  0.08999347    -0.22800
H2179       H  0.53836088  0.88619919  0.12431329     0.19000
H2180       H  0.94623272  0.81010543  0.16714360     0.17800
H2181       H  0.95403579  0.84853416  0.22153461     0.14100
H2182       H  0.53012340  0.84312005  0.07398948     0.13900
H2183       H  0.53259180  0.91419261  0.18016527     0.32100
H2184       H  0.95396535  0.78447017  0.11137623     0.34900
C2185       C  0.49876705  0.84574142  0.41242430     0.20500
C2186       C  0.51478447  0.87258732  0.39449881    -0.39400
C2187       C  0.49932385  0.87850799  0.37148616     0.19400
C2188       C  0.96914803  0.86161110  0.36949373     0.22100
C2189       C  0.95135506  0.83567479  0.38876415    -0.39900
C2190       C  0.96622277  0.82723980  0.41040052     0.20900
N2191       N  0.50895140  0.83445570  0.43455827    -0.33200
C2192       C  0.98131587  0.80594796  0.44568097    -0.10700
C2193       C  0.95613383  0.80313813  0.43197472    -0.29600
N2194       N  0.96107537  0.87327725  0.34535421    -0.46200
C2195       C  0.98619700  0.89706237  0.33273604    -0.05400
C2196       C  0.50928606  0.90113560  0.34849825    -0.22800
H2197       H  0.53788835  0.88742411  0.39757652     0.19000
H2198       H  0.92784705  0.82276028  0.38664110     0.17800
H2199       H  0.93366720  0.78561856  0.43668715     0.14100
H2200       H  0.53186652  0.91848944  0.34427604     0.13900
H2201       H  0.53035206  0.84420913  0.44224226     0.32100
H2202       H  0.94010766  0.86449545  0.33670246     0.34900
C2203       C  0.50238166  0.67114256  0.40579172     0.20500
C2204       C  0.51948418  0.66226861  0.38622438    -0.39400
C2205       C  0.50396144  0.63826118  0.36595350     0.19400
C2206       C  0.97281686  0.62698922  0.36103081     0.22100
C2207       C  0.95548232  0.63050760  0.38633787    -0.39900
C2208       C  0.96996514  0.65624255  0.40496382     0.20900
N2209       N  0.51198977  0.69332689  0.42713644    -0.35000
C2210       C  0.98405509  0.69355471  0.43901209    -0.10700
C2211       C  0.95975770  0.66683905  0.43072896    -0.29600
N2212       N  0.96427879  0.60524136  0.33888009    -0.46200
C2213       C  0.98854932  0.61254214  0.31883180    -0.05400
C2214       C  0.51414733  0.62559272  0.34283533    -0.22800
H2215       H  0.54320732  0.67342948  0.38653597     0.19000
H2216       H  0.93239635  0.61463884  0.39091292     0.17800
H2217       H  0.93769314  0.65658259  0.44202667     0.14100
H2218       H  0.53695200  0.63287899  0.33564589     0.13900
H2219       H  0.53377709  0.70735318  0.43258325     0.32100
H2220       H  0.94318243  0.58726774  0.33704264     0.34900
C2221       C  0.01611730  0.65125720  0.15761751     0.20500
C2222       C  0.52272663  0.66211748  0.13537425    -0.39400
C2223       C  0.01619593  0.68237153  0.11481413     0.19400
C2224       C  0.98588268  0.66914891  0.11887009     0.22100
C2225       C  0.96956645  0.64679769  0.14256247    -0.39900
C2226       C  0.98584243  0.63847101  0.16169969     0.20900
N2227       N  0.51902939  0.63260974  0.18446597    -0.33200
C2228       C  0.00235284  0.62062062  0.19866974    -0.10700
C2229       C  0.97682587  0.61916390  0.18807151    -0.29600
N2230       N  0.97547948  0.68137416  0.09826353    -0.46200
C2231       C  0.99923954  0.70271613  0.08089790    -0.05400
C2232       C  0.51382443  0.68999381  0.09061295    -0.22800
H2233       H  0.54508031  0.66797059  0.12758009     0.19000
H2234       H  0.94593708  0.63698261  0.14624709     0.17800
H2235       H  0.95484629  0.60713466  0.19950453     0.14100
H2236       H  0.53470515  0.70034968  0.07658204     0.13900
H2237       H  0.53991404  0.63450653  0.18320642     0.32100
H2238       H  0.95351767  0.67580488  0.09646489     0.34900
C2239       C  0.84699115  0.85297389  0.15616097     0.20500
C2240       C  0.82050349  0.84233206  0.14104906    -0.39400
C2241       C  0.81736956  0.82488054  0.11393422     0.19400
C2242       C  0.83882605  0.81806931  0.10273644     0.22100
C2243       C  0.86579826  0.82917125  0.11777661    -0.39900
C2244       C  0.86913639  0.84716165  0.14500127     0.20900
N2245       N  0.85504392  0.87062084  0.18177674    -0.33200
C2246       C  0.88286401  0.87708092  0.18717443    -0.10700
C2247       C  0.89255389  0.86260266  0.16476874    -0.29600
N2248       N  0.83003231  0.80086822  0.07634374    -0.46200
C2249       C  0.80305005  0.79725804  0.07075470    -0.05400
C2250       C  0.79456623  0.81198041  0.09369827    -0.22800
H2251       H  0.80362286  0.84759844  0.14963202     0.19000
H2252       H  0.88294050  0.82445164  0.10876995     0.17800
H2253       H  0.91379420  0.86365769  0.16273955     0.14100
H2254       H  0.77438711  0.81314551  0.09530390     0.13900
H2255       H  0.84253002  0.87864636  0.19446245     0.32100
H2256       H  0.84182344  0.79261652  0.06263975     0.34900
C2257       C  0.85969854  0.87967418  0.35106659     0.20500
C2258       C  0.83864876  0.87418460  0.37679197    -0.39400
C2259       C  0.83118283  0.84918390  0.39689077     0.19400
C2260       C  0.84379646  0.83114843  0.39177954     0.22100
C2261       C  0.86468191  0.83657342  0.36611225    -0.39900
C2262       C  0.87201119  0.86138200  0.34603912     0.20900
N2263       N  0.86803904  0.89976482  0.32633921    -0.33200
C2264       C  0.88562126  0.89403387  0.30552141    -0.10700
C2265       C  0.88840544  0.87017842  0.31698292    -0.29600
N2266       N  0.83135998  0.80747990  0.41239005    -0.46200
C2267       C  0.81043244  0.81020430  0.43062023    -0.05400
C2268       C  0.80979942  0.83606782  0.42188106    -0.22800
H2269       H  0.82792135  0.88755509  0.38002596     0.19000
H2270       H  0.87355656  0.82173703  0.36119171     0.17800
H2271       H  0.89902216  0.85917983  0.30426697     0.14100
H2272       H  0.79471262  0.84343094  0.43137344     0.13900
H2273       H  0.86011160  0.91444032  0.32238483     0.32100
H2274       H  0.83583574  0.78980437  0.41290415     0.34900
C2275       C  0.66998064  0.68743045  0.38054877     0.20500
C2276       C  0.64473275  0.68064524  0.36424206    -0.39400
C2277       C  0.64132687  0.66483577  0.33557696     0.19400
C2278       C  0.66153003  0.65647808  0.32392758     0.22100
C2279       C  0.68673562  0.66302107  0.34043843    -0.39900
C2280       C  0.69009622  0.67875213  0.36929344     0.20900
N2281       N  0.67798764  0.70205030  0.40843918    -0.33200
C2282       C  0.70325412  0.70251373  0.41523779    -0.10700
C2283       C  0.71153705  0.68811324  0.39148213    -0.29600
N2284       N  0.65201732  0.63977011  0.29750407    -0.46200
C2285       C  0.62520956  0.63678970  0.29271347    -0.05400
C2286       C  0.61813776  0.65271967  0.31582099    -0.22800
H2287       H  0.62859108  0.68667856  0.37357730     0.19000
H2288       H  0.70220271  0.65583717  0.33184785     0.17800
H2289       H  0.73076529  0.68523860  0.39041047     0.14100
H2290       H  0.59801169  0.65372732  0.31971128     0.13900
H2291       H  0.66684848  0.71101912  0.42213561     0.32100
H2292       H  0.66210402  0.62915544  0.28490272     0.34900
C2293       C  0.62107290  0.62920168  0.13468040     0.20500
C2294       C  0.62611481  0.65109298  0.11115838    -0.39400
C2295       C  0.65288480  0.66270693  0.09252110     0.19400
C2296       C  0.67316312  0.65323409  0.09681618     0.22100
C2297       C  0.66843348  0.63181314  0.12080176    -0.39900
C2298       C  0.64165061  0.62024919  0.13949699     0.20900
N2299       N  0.59938725  0.61795192  0.15838456    -0.33200
C2300       C  0.60635314  0.60217080  0.17892659    -0.10700
C2301       C  0.63260311  0.60317776  0.16774014    -0.29600
N2302       N  0.69732907  0.66855021  0.07679443    -0.46200
C2303       C  0.69244206  0.68809749  0.05990386    -0.05400
C2304       C  0.66503596  0.68518976  0.06915341    -0.22800
H2305       H  0.61083930  0.65936781  0.10847555     0.19000
H2306       H  0.68490124  0.62552866  0.12548914     0.17800
H2307       H  0.64557097  0.59616648  0.18108682     0.14100
H2308       H  0.65550034  0.69814331  0.06032019     0.13900
H2309       H  0.58314783  0.62405037  0.16277582     0.32100
H2310       H  0.71628691  0.66647540  0.07540825     0.34900
O2311       O  0.76046795  0.77799751  0.53483121    -0.72800
O2312       O  0.71590121  0.74324877  0.95975063    -0.73800
O2313       O  0.70652990  0.72531482  0.52586341    -0.62400
O2314       O  0.76945380  0.79642014  0.96690259    -0.70800
O2315       O  0.79348407  0.77097700  0.95985049    -0.70400
O2316       O  0.73167874  0.70080719  0.52286681    -0.61600
O2317       O  0.73989630  0.71769134  0.95438554    -0.74100
O2318       O  0.78639007  0.75440929  0.52864190    -0.72900
Cu2319     Cu  0.73659466  0.75824703  0.49663700     1.04600
Cu2320     Cu  0.76560608  0.73867786  0.99146528     1.04300
C2321       C  0.78108770  0.77331881  0.54332372     0.93400
C2322       C  0.72068649  0.72406465  0.94476239     0.92500
C2323       C  0.70942120  0.70305008  0.53393647     0.84700
C2324       C  0.79033211  0.79341649  0.95309696     0.90900
O2325       O  0.50345901  0.78212507  0.97579767    -0.72800
O2326       O  0.51828593  0.73638145  0.54182083    -0.73800
O2327       O  0.50382265  0.72691033  0.97599876    -0.62400
O2328       O  0.51819581  0.79190798  0.54422490    -0.70800
O2329       O  0.96497280  0.76484891  0.55235367    -0.70400
O2330       O  0.96542198  0.71549963  0.98061801    -0.61600
O2331       O  0.96611818  0.71057512  0.54932558    -0.74100
O2332       O  0.96361152  0.77001383  0.98297389    -0.72900
Cu2333     Cu  0.51748211  0.76471972  0.50833214     1.04600
Cu2334     Cu  0.96101621  0.73628535  0.51654288     1.04300
C2335       C  0.98672591  0.79119672  0.96873146     0.93400
C2336       C  0.99131462  0.71435343  0.55596515     0.92500
C2337       C  0.98904580  0.71905354  0.96555961     0.84700
C2338       C  0.99001746  0.78548172  0.56039013     0.90900
O2339       O  0.78301519  0.53273938  0.52787980    -0.72800
O2340       O  0.73086441  0.52662643  0.95372724    -0.73800
O2341       O  0.72728225  0.53018577  0.52294271    -0.62400
O2342       O  0.78627293  0.53236441  0.96228698    -0.70800
O2343       O  0.76823286  0.98295620  0.96374537    -0.70400
O2344       O  0.69654598  0.97667444  0.52593974    -0.61600
O2345       O  0.71239268  0.97738734  0.95389928    -0.74100
O2346       O  0.75349572  0.98344614  0.53344554    -0.72900
Cu2347     Cu  0.75487593  0.53256700  0.99229892     1.04600
Cu2348     Cu  0.72853031  0.97737605  0.49573607     1.04300
C2349       C  0.77192810  0.00925486  0.54298658     0.93400
C2350       C  0.71572763  0.00109827  0.93999151     0.92500
C2351       C  0.69587008  0.00043552  0.53357359     0.84700
C2352       C  0.78803728  0.00820915  0.95197767     0.90900
C2353       C  0.98692694  0.91147760  0.79626121     0.86600
C2354       C  0.51519825  0.93761125  0.79642325    -0.53600
C2355       C  0.52183719  0.95168636  0.76657259     0.09500
C2356       C  0.99625885  0.93467433  0.73738620     0.20500
C2357       C  0.96181781  0.91598029  0.78591921    -0.54400
C2358       C  0.96612381  0.92768398  0.75491080     0.09600
C2359       C  0.99099759  0.89268856  0.76939223    -0.53900
C2360       C  0.99555338  0.90452397  0.73870314     0.10200
H2361       H  0.52903606  0.94675966  0.81682473     0.14700
H2362       H  0.99983476  0.94431773  0.71237523     0.00500
H2363       H  0.94174621  0.90881354  0.80095739     0.15000
H2364       H  0.98897618  0.87100367  0.77417317     0.14800
C2365       C  0.98917130  0.59449849  0.79396369     0.86600
C2366       C  0.96304756  0.56523324  0.78480935    -0.53600
C2367       C  0.96736845  0.55506219  0.75514239     0.09500
C2368       C  0.99807457  0.57559356  0.73741050     0.20500
C2369       C  0.51315643  0.58415449  0.79195083    -0.54400
C2370       C  0.52118805  0.57779915  0.76195148     0.09600
C2371       C  0.99502682  0.61584598  0.76504959    -0.53900
C2372       C  0.99918980  0.60588561  0.73554672     0.10200
H2373       H  0.94259881  0.55436930  0.79960664     0.14700
H2374       H  0.00142654  0.56739534  0.71338576     0.00500
H2375       H  0.52551483  0.58624673  0.81299382     0.15000
H2376       H  0.99386046  0.63628097  0.76752710     0.14800
C2377       C  0.60374801  0.61348334  0.77333236     0.86600
C2378       C  0.57308796  0.60957138  0.77456996    -0.53600
C2379       C  0.55344700  0.58726127  0.75593204     0.09500
C2380       C  0.56833905  0.57246583  0.73449926     0.20500
C2381       C  0.59911622  0.58224409  0.78020519    -0.54400
C2382       C  0.58207591  0.56048271  0.75910163     0.09600
C2383       C  0.61410155  0.62003835  0.73767217    -0.53900
C2384       C  0.59573705  0.59924118  0.71707254     0.10200
H2385       H  0.56699948  0.62301773  0.79000303     0.14700
H2386       H  0.55357111  0.55548608  0.71772490     0.00500
H2387       H  0.60998068  0.57882601  0.79997973     0.15000
H2388       H  0.63453813  0.63950814  0.72927392     0.14800
C2389       C  0.60425843  0.49891640  0.76828920     0.86600
C2390       C  0.60161595  0.52665603  0.77562358    -0.53600
C2391       C  0.58261325  0.53105470  0.75752356     0.09500
C2392       C  0.56631380  0.50472214  0.73388292     0.20500
C2393       C  0.57509245  0.97426122  0.77407811    -0.54400
C2394       C  0.55306502  0.97558558  0.75882502     0.09600
C2395       C  0.61148165  0.50066414  0.73188650    -0.53900
C2396       C  0.59176624  0.50318918  0.71352180     0.10200
H2397       H  0.61538207  0.54198404  0.79323678     0.14700
H2398       H  0.55036626  0.50691251  0.71900548     0.00500
H2399       H  0.57080830  0.95614955  0.79057759     0.15000
H2400       H  0.63042744  0.49948292  0.72131672     0.14800
C2401       C  0.89760220  0.51213697  0.71033337     0.86600
C2402       C  0.92979587  0.53590719  0.71395841    -0.53600
C2403       C  0.94219608  0.53027133  0.73976109     0.09500
C2404       C  0.92128529  0.50065686  0.75864872     0.20500
C2405       C  0.89783622  0.98435736  0.70073509    -0.54400
C2406       C  0.90943674  0.97691062  0.72573905     0.09600
C2407       C  0.88218121  0.51020698  0.74361833    -0.53900
C2408       C  0.89440888  0.50432776  0.76888670     0.10200
H2409       H  0.94056450  0.55673447  0.70004931     0.14700
H2410       H  0.93131790  0.49620309  0.77947798     0.00500
H2411       H  0.88901561  0.97101178  0.67967702     0.15000
H2412       H  0.86368658  0.51433133  0.74706192     0.14800
C2413       C  0.89809435  0.89864938  0.70597527     0.86600
C2414       C  0.89940970  0.92844999  0.70102503    -0.53600
C2415       C  0.90958791  0.94767256  0.72628221     0.09500
C2416       C  0.91869264  0.93451715  0.75447684     0.20500
C2417       C  0.92974840  0.90669429  0.71244019    -0.54400
C2418       C  0.94063779  0.92534490  0.73819685     0.09600
C2419       C  0.88061712  0.88608465  0.73842448    -0.53900
C2420       C  0.89116302  0.90445951  0.76382479     0.10200
H2421       H  0.89220199  0.93288385  0.67865892     0.14700
H2422       H  0.92736836  0.94927308  0.77549113     0.00500
H2423       H  0.94137264  0.89653948  0.69998736     0.15000
H2424       H  0.86222543  0.86357262  0.74143859     0.14800
C2425       C  0.83408310  0.52601890  0.59910522     0.20500
C2426       C  0.86145667  0.54229804  0.61307053    -0.39400
C2427       C  0.86558185  0.52885630  0.64057639     0.19400
C2428       C  0.84272757  0.00190308  0.64726018     0.22100
C2429       C  0.81632097  0.98457548  0.63254872    -0.39900
C2430       C  0.81012444  0.99876585  0.60792385     0.20900
N2431       N  0.82459144  0.53359608  0.57287579    -0.33200
C2432       C  0.79128094  0.01158576  0.56887014    -0.10700
C2433       C  0.78642000  0.98778329  0.58894589    -0.29600
N2434       N  0.85285912  0.99313499  0.67150713    -0.46200
C2435       C  0.88048736  0.51513639  0.68342487    -0.05400
C2436       C  0.88945721  0.53791688  0.65979978    -0.22800
H2437       H  0.87828409  0.56369174  0.60317470     0.19000
H2438       H  0.80159160  0.96158647  0.63984600     0.17800
H2439       H  0.76804639  0.96534400  0.58943665     0.14100
H2440       H  0.91045908  0.55807534  0.65683232     0.13900
H2441       H  0.83605894  0.55305727  0.55855485     0.32100
H2442       H  0.84217943  0.97225464  0.68330076     0.34900
C2443       C  0.83415771  0.49682187  0.89786352     0.20500
C2444       C  0.84453244  0.48036074  0.87946921    -0.39400
C2445       C  0.86236660  0.49489965  0.85132249     0.19400
C2446       C  0.86895974  0.52345330  0.84219592     0.22100
C2447       C  0.85910972  0.54003089  0.86081844    -0.39900
C2448       C  0.84161966  0.52568068  0.88897123     0.20900
N2449       N  0.81324819  0.98595431  0.91809872    -0.33200
C2450       C  0.81045185  0.00978095  0.92755019    -0.10700
C2451       C  0.82845211  0.03474617  0.90778769    -0.29600
N2452       N  0.88275646  0.53083867  0.81252102    -0.46200
C2453       C  0.88527621  0.50702228  0.80263951    -0.05400
C2454       C  0.87321641  0.48429853  0.82628320    -0.22800
H2455       H  0.83801997  0.45747482  0.88569082     0.19000
H2456       H  0.86349741  0.56195814  0.85305768     0.17800
H2457       H  0.82964221  0.05633226  0.90845815     0.14100
H2458       H  0.86529123  0.96008726  0.81543452     0.13900
H2459       H  0.80149421  0.96423747  0.92770876     0.32100
H2460       H  0.88869356  0.55028823  0.79899220     0.34900
C2461       C  0.64737907  0.98284930  0.82203459     0.20500
C2462       C  0.64964120  0.96620264  0.84760015    -0.39400
C2463       C  0.67168538  0.98232278  0.86910391     0.19400
C2464       C  0.69011160  0.01270804  0.86532345     0.22100
C2465       C  0.68723665  0.52651463  0.84057508    -0.39900
C2466       C  0.66326687  0.51075482  0.82124571     0.20900
N2467       N  0.61987880  0.47266861  0.80899030    -0.33200
C2468       C  0.62621223  0.49644022  0.78924140    -0.10700
C2469       C  0.65374709  0.52033123  0.79561101    -0.29600
N2470       N  0.70790609  0.02316634  0.89013755    -0.46200
C2471       C  0.70091343  0.99928762  0.90984119    -0.05400
C2472       C  0.67850259  0.97334125  0.89740636    -0.22800
H2473       H  0.63439513  0.94268550  0.85140463     0.19000
H2474       H  0.70308710  0.54972143  0.83571762     0.17800
H2475       H  0.66400786  0.54263135  0.78508788     0.14100
H2476       H  0.66817837  0.95106786  0.90800503     0.13900
H2477       H  0.60110188  0.45182067  0.81068827     0.32100
H2478       H  0.72535117  0.54279897  0.89241466     0.34900
C2479       C  0.60183750  0.98167599  0.63465337     0.20500
C2480       C  0.61153270  0.96511952  0.61553824    -0.39400
C2481       C  0.63335838  0.98110119  0.59094912     0.19400
C2482       C  0.66062155  0.51936902  0.59219515     0.22100
C2483       C  0.65280437  0.53637680  0.61311173    -0.39900
C2484       C  0.62788395  0.52024236  0.63442274     0.20900
N2485       N  0.58682493  0.97314535  0.66371269    -0.33200
C2486       C  0.59635612  0.50398062  0.67769860    -0.10700
C2487       C  0.61786151  0.52963270  0.66120730    -0.29600
N2488       N  0.68421942  0.52933359  0.57091043    -0.46200
C2489       C  0.67140023  0.99839561  0.55523966    -0.05400
C2490       C  0.64999433  0.97241939  0.57137127    -0.22800
H2491       H  0.60433643  0.94195903  0.62114995     0.19000
H2492       H  0.66594427  0.56036998  0.61380018     0.17800
H2493       H  0.62870268  0.55158730  0.67088507     0.14100
H2494       H  0.64801772  0.95050009  0.57042755     0.13900
H2495       H  0.58056398  0.95303569  0.67587831     0.32100
H2496       H  0.70019354  0.55148100  0.56609495     0.34900
C2497       C  0.51050821  0.87244205  0.66723977     0.20500
C2498       C  0.52725012  0.86832012  0.64175997    -0.39400
C2499       C  0.51162113  0.84382579  0.62190681     0.19400
C2500       C  0.97907183  0.82063723  0.63101419     0.22100
C2501       C  0.96340316  0.82414784  0.65791451    -0.39900
C2502       C  0.97885855  0.85007458  0.67558787     0.20900
N2503       N  0.52007017  0.89357005  0.68994823    -0.33200
C2504       C  0.99437516  0.88698693  0.70976297    -0.10700
C2505       C  0.97011128  0.85987500  0.70297115    -0.29600
N2506       N  0.96896777  0.79834158  0.60981252    -0.46200
C2507       C  0.99174627  0.80460913  0.58794747    -0.05400
C2508       C  0.52098911  0.83324852  0.59543343    -0.22800
H2509       H  0.55068153  0.88301201  0.63776652     0.19000
H2510       H  0.94074429  0.80796408  0.66448044     0.17800
H2511       H  0.94899710  0.84875930  0.71650803     0.14100
H2512       H  0.54317991  0.84235623  0.58471381     0.13900
H2513       H  0.54165861  0.90999318  0.69286140     0.32100
H2514       H  0.94785509  0.77996705  0.61019992     0.34900
C2515       C  0.49447406  0.83527272  0.90862647     0.20500
C2516       C  0.51265099  0.85817451  0.88638442    -0.39400
C2517       C  0.49851049  0.86912709  0.86740185     0.19400
C2518       C  0.96826808  0.86251951  0.86704514     0.22100
C2519       C  0.95177210  0.83617334  0.88609612    -0.39900
C2520       C  0.96740978  0.83001559  0.90895606     0.20900
N2521       N  0.50287688  0.82077943  0.92862065    -0.33200
C2522       C  0.98427964  0.81114031  0.94493446    -0.10700
C2523       C  0.95873829  0.80596897  0.93017579    -0.29600
N2524       N  0.95962621  0.87224998  0.84162376    -0.46200
C2525       C  0.98383896  0.89737463  0.82967288    -0.05400
C2526       C  0.50982371  0.88956978  0.84220015    -0.22800
H2527       H  0.53611899  0.86643127  0.88353172     0.19000
H2528       H  0.92875143  0.82119533  0.88275234     0.17800
H2529       H  0.93703367  0.78680664  0.93374618     0.14100
H2530       H  0.53239306  0.90094592  0.83230522     0.13900
H2531       H  0.52431851  0.82476968  0.93089606     0.32100
H2532       H  0.93908462  0.86143573  0.83170585     0.34900
C2533       C  0.48915789  0.65792373  0.91319954     0.20500
C2534       C  0.50386747  0.64377308  0.89878235    -0.39400
C2535       C  0.49140311  0.62703413  0.87136934     0.19400
C2536       C  0.97213441  0.62893467  0.86321515     0.22100
C2537       C  0.95520092  0.63737230  0.88411322    -0.39900
C2538       C  0.97114105  0.66151566  0.90450100     0.20900
N2539       N  0.49755634  0.67634789  0.93843172    -0.35000
C2540       C  0.98757843  0.69813049  0.93982451    -0.10700
C2541       C  0.96185641  0.67529582  0.92766381    -0.29600
N2542       N  0.96273744  0.60771499  0.84036935    -0.46200
C2543       C  0.98738954  0.60887855  0.82585412    -0.05400
C2544       C  0.50190323  0.61311217  0.85038039    -0.22800
H2545       H  0.52410472  0.64638386  0.90764632     0.19000
H2546       H  0.93144949  0.62612571  0.88437341     0.17800
H2547       H  0.93941937  0.66957553  0.93480590     0.14100
H2548       H  0.52234216  0.61290203  0.85232729     0.13900
H2549       H  0.51619467  0.68271273  0.95154070     0.32100
H2550       H  0.94110618  0.59439943  0.83398318     0.34900
C2551       C  0.00960551  0.64539969  0.66025921     0.20500
C2552       C  0.52683890  0.66345684  0.63249972    -0.39400
C2553       C  0.00931008  0.67393509  0.61491751     0.19400
C2554       C  0.98027908  0.66580093  0.62338446     0.22100
C2555       C  0.96495999  0.64763860  0.65074277    -0.39900
C2556       C  0.98076240  0.63795579  0.66884495     0.20900
N2557       N  0.52113805  0.63317703  0.68176877    -0.33200
C2558       C  0.99734553  0.61958320  0.70504159    -0.10700
C2559       C  0.97271831  0.62161062  0.69751473    -0.29600
N2560       N  0.97025967  0.67857020  0.60300014    -0.46200
C2561       C  0.99305171  0.69533428  0.58145872    -0.05400
C2562       C  0.52034436  0.69357439  0.58810752    -0.22800
H2563       H  0.54967906  0.67009600  0.62640310     0.19000
H2564       H  0.94250775  0.64193960  0.65780408     0.17800
H2565       H  0.95195303  0.61287431  0.71164977     0.14100
H2566       H  0.54198243  0.70489413  0.57573721     0.13900
H2567       H  0.54231198  0.63597872  0.68224335     0.32100
H2568       H  0.94936521  0.67665100  0.60424138     0.34900
C2569       C  0.84593468  0.85273951  0.64927376     0.20500
C2570       C  0.81875153  0.84056570  0.63553787    -0.39400
C2571       C  0.81463902  0.82090941  0.61046740     0.19400
C2572       C  0.83590832  0.81363702  0.59979077     0.22100
C2573       C  0.86349875  0.82610026  0.61357402    -0.39900
C2574       C  0.86771940  0.84610521  0.63890875     0.20900
N2575       N  0.85461976  0.87186143  0.67348978    -0.33200
C2576       C  0.88225955  0.87795189  0.67912330    -0.10700
C2577       C  0.89146613  0.86230587  0.65790928    -0.29600
N2578       N  0.82633244  0.79468048  0.57497699    -0.46200
C2579       C  0.79904084  0.79041030  0.56995084    -0.05400
C2580       C  0.79106347  0.80634339  0.59166554    -0.22800
H2581       H  0.80202826  0.84619621  0.64370589     0.19000
H2582       H  0.88035393  0.82075478  0.60514375     0.17800
H2583       H  0.91229208  0.86245664  0.65672791     0.14100
H2584       H  0.77094436  0.80762563  0.59301489     0.13900
H2585       H  0.84229310  0.88030485  0.68578113     0.32100
H2586       H  0.83793547  0.78601540  0.56163198     0.34900
C2587       C  0.85418114  0.87856896  0.84221569     0.20500
C2588       C  0.83387887  0.87431432  0.86835058    -0.39400
C2589       C  0.82797404  0.85110931  0.89052705     0.19400
C2590       C  0.84112343  0.83343750  0.88672821     0.22100
C2591       C  0.86107110  0.83746390  0.86050314    -0.39900
C2592       C  0.86711330  0.86070642  0.83859056     0.20900
N2593       N  0.86239331  0.89790964  0.81680216    -0.33200
C2594       C  0.88089510  0.89243507  0.79725577    -0.10700
C2595       C  0.88394658  0.86909736  0.80980938    -0.29600
N2596       N  0.83049339  0.81169605  0.90966321    -0.46200
C2597       C  0.81017947  0.81526104  0.92809226    -0.05400
C2598       C  0.80813926  0.83978374  0.91714515    -0.22800
H2599       H  0.82300903  0.88760271  0.87082253     0.19000
H2600       H  0.87066051  0.82308217  0.85698339     0.17800
H2601       H  0.89575527  0.85869541  0.79845257     0.14100
H2602       H  0.79304343  0.84725913  0.92628598     0.13900
H2603       H  0.85434205  0.91235096  0.81192324     0.32100
H2604       H  0.83565621  0.79457036  0.91160940     0.34900
C2605       C  0.67264537  0.69538590  0.87893795     0.20500
C2606       C  0.64819233  0.68910924  0.86100913    -0.39400
C2607       C  0.64303746  0.66945586  0.83518033     0.19400
C2608       C  0.66122246  0.65756942  0.82734326     0.22100
C2609       C  0.68564111  0.66384503  0.84522445    -0.39900
C2610       C  0.69045039  0.68295488  0.87143713     0.20900
N2611       N  0.68123774  0.71186142  0.90579811    -0.33200
C2612       C  0.70442941  0.70955121  0.91573241    -0.10700
C2613       C  0.71086746  0.69180107  0.89477836    -0.29600
N2614       N  0.65055949  0.63803343  0.80326098    -0.46200
C2615       C  0.62478195  0.63650041  0.79617154    -0.05400
C2616       C  0.61971772  0.65638281  0.81537600    -0.22800
H2617       H  0.63358584  0.69791840  0.86749818     0.19000
H2618       H  0.69925220  0.65367697  0.83988210     0.17800
H2619       H  0.72795822  0.68584119  0.89663688     0.14100
H2620       H  0.60106458  0.66014309  0.81612880     0.13900
H2621       H  0.67152801  0.72341555  0.91708427     0.32100
H2622       H  0.65940320  0.62510916  0.79355676     0.34900
C2623       C  0.61738678  0.62555550  0.63540983     0.20500
C2624       C  0.62101396  0.64482237  0.60925378    -0.39400
C2625       C  0.64742782  0.65551490  0.58981776     0.19400
C2626       C  0.66847631  0.64747173  0.59589250     0.22100
C2627       C  0.66508716  0.62875781  0.62224945    -0.39900
C2628       C  0.63887391  0.61822111  0.64162968     0.20900
N2629       N  0.59642455  0.61570904  0.66003374    -0.33200
C2630       C  0.60484464  0.60230829  0.68213609    -0.10700
C2631       C  0.63134224  0.60385762  0.67145618    -0.29600
N2632       N  0.69252514  0.66221253  0.57564520    -0.46200
C2633       C  0.68713415  0.68027378  0.55682420    -0.05400
C2634       C  0.65914794  0.67663432  0.56479849    -0.22800
H2635       H  0.60516287  0.65212683  0.60532088     0.19000
H2636       H  0.68228673  0.62392818  0.62821182     0.17800
H2637       H  0.64540761  0.59914736  0.68581541     0.14100
H2638       H  0.64930502  0.68882087  0.55470152     0.13900
H2639       H  0.57941907  0.62083355  0.66336947     0.32100
H2640       H  0.71208843  0.66135219  0.57592968     0.34900
loop_ 
_geom_bond_atom_site_label_1 
_geom_bond_atom_site_label_2 
_geom_bond_distance 
_geom_bond_site_symmetry_2 
_ccdc_geom_bond_type 
O1           Cu9   2.021       .  S
O1           C11   1.280       .  A
O2         Cu339   2.008       .  S
O2           C12   1.278       .  A
O3           Cu9   1.995       .  S
O3           C13   1.275       .  A
O4         Cu339   1.999       .  S
O4           C14   1.275       .  A
O5          Cu10   2.013       .  S
O5           C14   1.279       .  A
O6         Cu340   2.027   1_554  S
O6           C13   1.280       .  A
O7          Cu10   2.010       .  S
O7           C12   1.277       .  A
O8         Cu340   2.020   1_554  S
O8           C11   1.277       .  A
Cu9         O332   2.018   1_554  S
Cu9         O334   2.004   1_554  S
Cu9        Cu340   2.374   1_554  S
Cu10        O336   2.028       .  S
Cu10        O338   2.010       .  S
Cu10       Cu339   2.375       .  S
C11         C269   1.477       .  S
C12         C302   1.468       .  S
C13         C323   1.471       .  S
C14         C287   1.468       .  S
O15        Cu353   2.017       .  S
O15        C1345   1.279   1_455  A
O16         Cu23   2.011       .  S
O16        C1346   1.278   1_455  A
O17        Cu353   2.020       .  S
O17        C1347   1.279   1_455  A
O18         Cu23   2.021       .  S
O18        C1348   1.279   1_455  A
O19         Cu24   2.022       .  S
O19          C28   1.279       .  A
O20        Cu354   2.035       .  S
O20          C27   1.280       .  A
O21         Cu24   2.009       .  S
O21          C26   1.278       .  A
O22        Cu354   2.030       .  S
O22          C25   1.279       .  A
Cu23        O345   2.007   1_554  S
Cu23        O347   2.012   1_554  S
Cu23      Cu1344   2.373   1_455  S
Cu24        O350   2.018   1_554  S
Cu24        O352   2.015   1_554  S
Cu24      Cu1343   2.373       .  S
C25        O1335   1.278       .  A
C25         C212   1.479       .  S
C26        O1336   1.278       .  A
C26         C251   1.472       .  S
C27        O1337   1.279       .  A
C27         C230   1.484       .  S
C28        O1338   1.279       .  A
C28         C197   1.482       .  S
O29        Cu367   2.023   1_554  S
O29         C699   1.278       .  A
O30         Cu37   2.025       .  S
O30         C700   1.279       .  A
O31        Cu367   2.024   1_554  S
O31         C701   1.279       .  A
O32         Cu37   2.001       .  S
O32         C702   1.277       .  A
O33        Cu368   1.999       .  S
O33          C42   1.276       .  A
O34         Cu38   2.013   1_554  S
O34          C41   1.278       .  A
O35        Cu368   2.016       .  S
O35          C40   1.279       .  A
O36         Cu38   2.019   1_554  S
O36          C39   1.279       .  A
Cu37        O359   2.025       .  S
Cu37        O361   2.025       .  S
Cu37      Cu1028   2.372   1_545  S
Cu38        O363   2.020       .  S
Cu38        O365   2.021       .  S
Cu38      Cu1027   2.373       .  S
C39         O689   1.276       .  A
C39         C122   1.471       .  S
C40         O690   1.278       .  A
C40         C161   1.474       .  S
C41         O691   1.281       .  A
C41         C179   1.482       .  S
C42         O692   1.278       .  A
C42         C140   1.468       .  S
C43          C49   1.537       .  S
C43          C47   1.518       .  S
C43        C1364   1.519       .  S
C43         C215   1.516       .  S
C44        C1363   1.521   1_455  S
C44          H51   1.084       .  S
C44          C45   1.366       .  D
C45        C1366   1.561   1_455  S
C45          C84   1.512       .  S
C46          C50   1.538       .  S
C46          C48   1.565       .  S
C46        C1365   1.562       .  S
C46          H52   1.111       .  S
C47          H53   1.078       .  S
C47          C48   1.372       .  D
C48         C108   1.486       .  S
C49          H54   1.087       .  S
C49          C50   1.362       .  D
C50         C194   1.479       .  S
C55          C56   1.522       .  S
C55          C61   1.536       .  S
C55        C1379   1.514       .  S
C55         C233   1.520       .  S
C56          H63   1.076       .  S
C56          C57   1.376       .  D
C57          C58   1.568       .  S
C57          C93   1.494       .  S
C58          C62   1.538       .  S
C58        C1380   1.562       .  S
C58          H64   1.110       .  S
C59        C1375   1.522   1_455  S
C59          H65   1.087       .  S
C59          C60   1.370       .  D
C60        C1378   1.559   1_455  S
C60          C69   1.515       .  S
C61          H66   1.087       .  S
C61          C62   1.358       .  D
C62         C248   1.472       .  S
C67          C68   1.511       .  S
C67          C73   1.516       .  S
C67          C71   1.525       .  S
C67         C305   1.517       .  S
C68          H75   1.082       .  S
C68          C69   1.372       .  D
C69          C70   1.571       .  S
C70          C74   1.558       .  S
C70          C72   1.561       .  S
C70          H76   1.109       .  S
C71          H77   1.081       .  S
C71          C72   1.374       .  D
C72          C81   1.524       .  S
C73          H78   1.087       .  S
C73          C74   1.366       .  D
C74         C320   1.469       .  S
C79          C80   1.526       .  S
C79          C85   1.519       .  S
C79         C743   1.521   1_545  S
C79         C158   1.535       .  S
C80          H87   1.078       .  S
C80          C81   1.379       .  D
C81          C82   1.564       .  S
C82          C86   1.560       .  S
C82         C744   1.556   1_545  S
C82          H88   1.109       .  S
C83         C739   1.519       .  S
C83          H89   1.080       .  S
C83          C84   1.372       .  D
C84         C742   1.561       .  S
C85          H90   1.087       .  S
C85          C86   1.368       .  D
C86         C176   1.476       .  S
C91          C92   1.538       .  S
C91          C97   1.529       .  S
C91         C755   1.516   1_545  S
C91         C125   1.516       .  S
C92          H99   1.077       .  S
C92          C93   1.378       .  D
C93          C94   1.555   1_545  S
C94          C98   1.542   1_565  S
C94         C756   1.555       .  S
C94         H100   1.109       .  S
C95         C751   1.517       .  S
C95         H101   1.080       .  S
C95          C96   1.369       .  D
C96         C754   1.551       .  S
C96         C105   1.508       .  S
C97         H102   1.087       .  S
C97          C98   1.357       .  D
C98         C143   1.472       .  S
C103        C104   1.516       .  S
C103        C109   1.524       .  S
C103        C107   1.538       .  S
C103        C266   1.515       .  S
C104        H111   1.079       .  S
C104        C105   1.371       .  D
C105        C106   1.554       .  S
C106        C110   1.545       .  S
C106        C108   1.553       .  S
C106        H112   1.109       .  S
C107        H113   1.082       .  S
C107        C108   1.376       .  D
C109        H114   1.087       .  S
C109        C110   1.359       .  D
C110        C284   1.475       .  S
C115        C116   1.415       .  A
C115        C780   1.383   1_545  A
C115        N121   1.350       .  A
C116        C117   1.412       .  A
C116        H127   1.082       .  S
C117        C126   1.394       .  A
C117        C778   1.383       .  A
C118        C119   1.400       .  A
C118        C777   1.383       .  A
C118        N124   1.335       .  A
C119        C120   1.397       .  A
C119        H128   1.083       .  S
C120        C123   1.377       .  A
C120        C775   1.384       .  A
N121        C782   1.361       .  A
N121        H131   1.044       .  S
C122        C123   1.392       .  A
C122        N781   1.358       .  A
C123        H129   1.082       .  S
N124        C785   1.355       .  A
N124        H132   1.045       .  S
C125        C126   1.403       .  A
C125        N784   1.355   1_545  A
C126        H130   1.082       .  S
C133        C138   1.385   1_565  A
C133        C134   1.406       .  A
C133        N799   1.346       .  A
C134        C135   1.405       .  A
C134        H145   1.082       .  S
C135        C144   1.382       .  A
C135        C136   1.384   1_565  A
C136        C137   1.401       .  A
C136        N142   1.340       .  A
C137        C138   1.400       .  A
C137        H146   1.083       .  S
C138        C801   1.375       .  A
N139        C140   1.356       .  A
N139        C793   1.342       .  A
N139        H149   1.045       .  S
C140        C141   1.394       .  A
C141        C798   1.378       .  A
C141        H147   1.082       .  S
N142        C143   1.355       .  A
N142        H150   1.045       .  S
C143        C144   1.392   1_545  A
C144        H808   1.078       .  S
H148        C804   1.081       .  S
C151        C152   1.405       .  A
C151        C816   1.381       .  A
C151        N817   1.343       .  A
C152        C153   1.403       .  A
C152        H163   1.082       .  S
C153        C162   1.380       .  A
C153        C154   1.384       .  A
C154        C815   1.406       .  A
C154        N160   1.344       .  A
C155        C156   1.407       .  A
C155        C814   1.408       .  A
C155        H164   1.082       .  S
C156        C159   1.383       .  A
C156        C811   1.381   1_545  A
N157        C158   1.362   1_565  A
N157        C811   1.344       .  A
N157        H167   1.043       .  S
C158        C159   1.403       .  A
C159        H165   1.082       .  S
N160        C161   1.357       .  A
N160        H828   1.044       .  S
C161        C162   1.395       .  A
C162        H166   1.082       .  S
H168        N820   1.044       .  S
C169        C170   1.405       .  A
C169        C834   1.383       .  A
C169        N175   1.344       .  A
C170        C171   1.404       .  A
C170        H181   1.083       .  S
C171        C180   1.380       .  A
C171        C832   1.384       .  A
C172        C173   1.406       .  A
C172        C831   1.384   1_545  A
C172        N178   1.346       .  A
C173        C174   1.406       .  A
C173        H182   1.083       .  S
C174        C177   1.380       .  A
C174        C829   1.383   1_545  A
N175        C836   1.358       .  A
N175        H185   1.044       .  S
C176        C177   1.394       .  A
C176        N835   1.356   1_545  A
C177        H183   1.074       .  S
N178        C839   1.357       .  A
N178        H186   1.044       .  S
C179        C180   1.396       .  A
C179        N838   1.358       .  A
C180        H184   1.082       .  S
C187        C188   1.408       .  A
C187       C1512   1.384   1_455  A
C187        N193   1.349       .  A
C188        C189   1.408       .  A
C188        H199   1.082       .  S
C189        C198   1.383       .  A
C189       C1510   1.384   1_455  A
C190        C191   1.404       .  A
C190       C1509   1.384       .  A
C190        N196   1.344       .  A
C191        C192   1.402       .  A
C191        H200   1.082       .  S
C192        C195   1.378       .  A
C192       C1507   1.384       .  A
N193       C1514   1.356   1_455  A
N193        H203   1.043       .  S
C194        C195   1.394       .  A
C194       N1513   1.355       .  A
C195        H201   1.082       .  S
N196        C197   1.356       .  A
N196        H204   1.044       .  S
C197       C1518   1.400       .  A
C198       C1517   1.398   1_455  A
C198        H202   1.082       .  S
C205        C206   1.397   1_655  A
C205       C1530   1.385       .  A
C205        N211   1.341   1_655  A
C206        C207   1.398   1_455  A
C206        H217   1.083       .  S
C207        C216   1.367   1_655  A
C207       C1528   1.381       .  A
C208        C209   1.411       .  A
C208       C1527   1.382       .  A
C208        N214   1.352       .  A
C209        C210   1.412       .  A
C209        H218   1.082       .  S
C210        C213   1.387       .  A
C210       C1525   1.384       .  A
N211       C1532   1.353   1_455  A
N211        H221   1.045       .  S
C212        C213   1.401       .  A
C212       N1531   1.354       .  A
C213        H219   1.082       .  S
N214        C215   1.361       .  A
N214        H222   1.044       .  S
C215       C1536   1.397       .  A
C216       C1535   1.400   1_455  A
C216        H220   1.081       .  S
C223        C224   1.399   1_655  A
C223       C1548   1.384       .  A
C223        N229   1.343   1_655  A
C224        C225   1.401   1_455  A
C224        H235   1.083       .  S
C225        C234   1.369   1_655  A
C225       C1546   1.382       .  A
C226        C227   1.413       .  A
C226       C1545   1.383       .  A
C226        N232   1.356       .  A
C227        C228   1.415       .  A
C227        H236   1.082       .  S
C228        C231   1.389       .  A
C228       C1543   1.384       .  A
N229       C1550   1.354   1_455  A
N229        H239   1.045       .  S
C230        C231   1.403       .  A
C230       N1549   1.354       .  A
C231        H237   1.082       .  S
N232        C233   1.362       .  A
N232        H240   1.044       .  S
C233       C1554   1.396       .  A
C234       C1553   1.400   1_455  A
C234        H238   1.082       .  S
C241        C246   1.384       .  A
C241       C1562   1.406       .  A
C241       N1567   1.348       .  A
C242       C1561   1.404       .  A
C242       C1563   1.404       .  A
C242        H253   1.082       .  S
C243        C244   1.385       .  A
C243       C1562   1.407       .  A
C243       C1572   1.381       .  A
C244        C245   1.400       .  A
C244        N250   1.341       .  A
C245        C246   1.399       .  A
C245        H254   1.083       .  S
C246        C249   1.371       .  A
N247       C1561   1.346       .  A
N247       C1568   1.353   1_455  A
N247        H257   1.044       .  S
C248        C249   1.392       .  A
C248       N1567   1.355       .  A
C249        H255   1.081       .  S
N250        C251   1.354       .  A
N250        H258   1.045       .  S
C251       C1572   1.397       .  A
C252       C1563   1.379       .  A
C252       C1571   1.396   1_455  A
C252        H256   1.082       .  S
C259        C264   1.383       .  A
C259        C260   1.399       .  A
C259        N265   1.336       .  A
C260        C261   1.396       .  A
C260        H271   1.083       .  S
C261        C270   1.375       .  A
C261        C262   1.384       .  A
C262        C263   1.413       .  A
C262        N268   1.349       .  A
C263        C264   1.411       .  A
C263        H272   1.082       .  S
C264        C267   1.393       .  A
N265        C266   1.355       .  A
N265        H275   1.045       .  S
C266        C267   1.402       .  A
C267        H273   1.082       .  S
N268        C269   1.360       .  A
N268        H276   1.044       .  S
C269        C270   1.392       .  A
C270        H274   1.082       .  S
C277        C282   1.385       .  A
C277        C278   1.406       .  A
C277        N283   1.349       .  A
C278        C279   1.407       .  A
C278        H289   1.082       .  S
C279        C288   1.378       .  A
C279        C280   1.386       .  A
C280        C281   1.398       .  A
C280        N286   1.342       .  A
C281        C282   1.398       .  A
C281        H290   1.083       .  S
C282        C285   1.368       .  A
N283        C284   1.355       .  A
N283        H293   1.043       .  S
C284        C285   1.393       .  A
C285        H291   1.083       .  S
N286        C287   1.353       .  A
N286        H294   1.045       .  S
C287        C288   1.397       .  A
C288        H292   1.082       .  S
C295        C300   1.385       .  A
C295        C296   1.400       .  A
C295        N301   1.341       .  A
C296        C297   1.399       .  A
C296        H307   1.082       .  S
C297        C306   1.373       .  A
C297        C298   1.382       .  A
C298        C299   1.406       .  A
C298        N304   1.344       .  A
C299        C300   1.405       .  A
C299        H308   1.082       .  S
C300        C303   1.381       .  A
N301        C302   1.353       .  A
N301        H311   1.045       .  S
C302        C303   1.397       .  A
C303        H309   1.082       .  S
N304        C305   1.359       .  A
N304        H312   1.045       .  S
C305        C306   1.400       .  A
C306        H310   1.080       .  S
C313        C318   1.384       .  A
C313        C314   1.404       .  A
C313        N319   1.346       .  A
C314        C315   1.404       .  A
C314        H325   1.083       .  S
C315        C324   1.377       .  A
C315        C316   1.385       .  A
C316        C317   1.402       .  A
C316        N322   1.345       .  A
C317        C318   1.403       .  A
C317        H326   1.083       .  S
C318        C321   1.373       .  A
N319        C320   1.356       .  A
N319        H329   1.045       .  S
C320        C321   1.393       .  A
C321        H327   1.083       .  S
N322        C323   1.355       .  A
N322        H330   1.045       .  S
C323        C324   1.396       .  A
C324        H328   1.082       .  S
O331       Cu339   2.010       .  S
O331        C341   1.280       .  A
O332        C342   1.279       .  A
O333       Cu339   1.997       .  S
O333        C343   1.274       .  A
O334        C344   1.277       .  A
O335       Cu340   2.016       .  S
O335        C344   1.279       .  A
O336        C343   1.281       .  A
O337       Cu340   2.020       .  S
O337        C342   1.279       .  A
O338        C341   1.275       .  A
C341        C599   1.470       .  S
C342        C632   1.477       .  S
C343        C653   1.472       .  S
C344        C617   1.472       .  S
O345       C1675   1.277   1_455  A
O346       Cu353   2.017       .  S
O346       C1676   1.278   1_455  A
O347       C1677   1.278   1_455  A
O348       Cu353   2.018       .  S
O348       C1678   1.278   1_455  A
O349       Cu354   2.033       .  S
O349        C358   1.280       .  A
O350        C357   1.278       .  A
O351       Cu354   2.010       .  S
O351        C356   1.278       .  A
O352        C355   1.278       .  A
Cu353     Cu1674   2.374   1_455  S
Cu354     Cu1673   2.371       .  S
C355       O1665   1.278       .  A
C355        C542   1.475       .  S
C356       O1666   1.278       .  A
C356        C581   1.473       .  S
C357       O1667   1.281       .  A
C357        C560   1.481       .  S
C358       O1668   1.280       .  A
C358        C527   1.487       .  S
O359       C1029   1.278       .  A
O360       Cu367   2.010       .  S
O360       C1030   1.277   1_545  A
O361       C1031   1.279       .  A
O362       Cu367   1.998       .  S
O362       C1032   1.277       .  A
O363        C372   1.278       .  A
O364       Cu368   2.001       .  S
O364        C371   1.276       .  A
O365        C370   1.279       .  A
O366       Cu368   2.012       .  S
O366        C369   1.279       .  A
Cu367      Cu698   2.374   1_545  S
Cu368      Cu697   2.374       .  S
C369       O1019   1.278       .  A
C369        C452   1.476       .  S
C370       O1020   1.276       .  A
C370        C491   1.473       .  S
C371       O1021   1.281       .  A
C371        C509   1.476       .  S
C372       O1022   1.279       .  A
C372        C470   1.477       .  S
C373       C1694   1.521       .  S
C373        C379   1.539       .  S
C373        C377   1.522       .  S
C373        C545   1.522       .  S
C374       C1693   1.516   1_455  S
C374        H381   1.086       .  S
C374        C375   1.368       .  D
C375       C1696   1.562   1_455  S
C375        C414   1.510       .  S
C376       C1695   1.559       .  S
C376        C380   1.541       .  S
C376        C378   1.564       .  S
C376        H382   1.110       .  S
C377        H383   1.082       .  S
C377        C378   1.374       .  D
C378        C438   1.483       .  S
C379        H384   1.087       .  S
C379        C380   1.363       .  D
C380        C524   1.487       .  S
C385        C386   1.522       .  S
C385        C391   1.538       .  S
C385       C1709   1.522       .  S
C385        C563   1.521       .  S
C386        H393   1.083       .  S
C386        C387   1.374       .  D
C387        C388   1.565       .  S
C387        C423   1.484       .  S
C388        C392   1.534       .  S
C388       C1710   1.558       .  S
C388        H394   1.111       .  S
C389       C1705   1.517   1_455  S
C389        H395   1.087       .  S
C389        C390   1.370       .  D
C390       C1708   1.562   1_455  S
C390        C399   1.515       .  S
C391        H396   1.087       .  S
C391        C392   1.363       .  D
C392        C578   1.475       .  S
C397        C398   1.514       .  S
C397        C403   1.516       .  S
C397        C401   1.524       .  S
C397        C635   1.525       .  S
C398        H405   1.080       .  S
C398        C399   1.375       .  D
C399        C400   1.564       .  S
C400        C404   1.557       .  S
C400        C402   1.565       .  S
C400        H406   1.109       .  S
C401        H407   1.079       .  S
C401        C402   1.377       .  D
C402        C411   1.525       .  S
C403        H408   1.087       .  S
C403        C404   1.365       .  D
C404        C650   1.472       .  S
C409        C410   1.527   1_565  S
C409        C415   1.521   1_565  S
C409       C1073   1.518       .  S
C409        C488   1.529       .  S
C410        H417   1.079       .  S
C410        C411   1.376       .  D
C411        C412   1.561       .  S
C412        C416   1.564       .  S
C412       C1074   1.563   1_545  S
C412        H418   1.109       .  S
C413       C1069   1.519       .  S
C413        H419   1.081       .  S
C413        C414   1.376       .  D
C414       C1072   1.559       .  S
C415        H420   1.087       .  S
C415        C416   1.368       .  D
C416        C506   1.479       .  S
C421        C422   1.539       .  S
C421        C427   1.526       .  S
C421       C1085   1.517   1_545  S
C421        C455   1.516       .  S
C422        H429   1.084       .  S
C422        C423   1.376       .  D
C423        C424   1.553   1_545  S
C424        C428   1.542   1_565  S
C424       C1086   1.553       .  S
C424        H430   1.109       .  S
C425       C1081   1.522       .  S
C425        H431   1.080       .  S
C425        C426   1.371       .  D
C426       C1084   1.548       .  S
C426        C435   1.510       .  S
C427        H432   1.087       .  S
C427        C428   1.359       .  D
C428        C473   1.473       .  S
C433        C434   1.518       .  S
C433        C439   1.528       .  S
C433        C437   1.534       .  S
C433        C596   1.507       .  S
C434        H441   1.080       .  S
C434        C435   1.368       .  D
C435        C436   1.557       .  S
C436        C440   1.545       .  S
C436        C438   1.556       .  S
C436        H442   1.109       .  S
C437        H443   1.085       .  S
C437        C438   1.376       .  D
C439        H444   1.087       .  S
C439        C440   1.356       .  D
C440        C614   1.476       .  S
C445       C1110   1.384   1_545  A
C445        C446   1.412       .  A
C445        N451   1.348       .  A
C446        C447   1.409       .  A
C446        H457   1.082       .  S
C447        C456   1.391       .  A
C447       C1108   1.383       .  A
C448       C1107   1.383       .  A
C448        C449   1.397       .  A
C448        N454   1.335       .  A
C449        C450   1.394       .  A
C449        H458   1.083       .  S
C450       C1105   1.383       .  A
C450        C453   1.372       .  A
N451       C1112   1.359       .  A
N451        H461   1.044       .  S
C452        C453   1.390       .  A
C452       N1111   1.362       .  A
C453        H459   1.083       .  S
N454       C1115   1.354       .  A
N454        H462   1.045       .  S
C455        C456   1.401       .  A
C455       N1114   1.357   1_545  A
C456        H460   1.082       .  S
C463        C468   1.385   1_565  A
C463        C464   1.408       .  A
C463       N1129   1.346       .  A
C464        C465   1.407       .  A
C464        H475   1.082       .  S
C465        C474   1.384       .  A
C465        C466   1.385   1_565  A
C466        C467   1.399       .  A
C466        N472   1.338       .  A
C467        C468   1.397       .  A
C467        H476   1.083       .  S
C468       C1131   1.372       .  A
N469       C1123   1.348       .  A
N469        C470   1.359       .  A
N469        H479   1.045       .  S
C470        C471   1.394       .  A
C471       C1128   1.377       .  A
C471        H477   1.082       .  S
N472        C473   1.354       .  A
N472        H480   1.045       .  S
C473        C474   1.394   1_545  A
C474       H1138   1.078       .  S
H478       C1134   1.078       .  S
C481       C1146   1.381       .  A
C481        C482   1.405       .  A
C481       N1147   1.344       .  A
C482        C483   1.403       .  A
C482        H493   1.082       .  S
C483        C492   1.379       .  A
C483        C484   1.384       .  A
C484       C1145   1.404       .  A
C484        N490   1.344       .  A
C485       C1144   1.407       .  A
C485        C486   1.406       .  A
C485        H494   1.082       .  S
C486       C1141   1.382   1_545  A
C486        C489   1.382       .  A
N487       C1141   1.342       .  A
N487        C488   1.362       .  A
N487        H497   1.042       .  S
C488        C489   1.402   1_565  A
C489        H495   1.082       .  S
N490        C491   1.357       .  A
N490       H1158   1.045       .  S
C491        C492   1.395       .  A
C492        H496   1.082       .  S
H498       N1150   1.044       .  S
C499       C1164   1.382       .  A
C499        C500   1.403       .  A
C499        N505   1.342       .  A
C500        C501   1.401       .  A
C500        H511   1.083       .  S
C501        C510   1.377       .  A
C501       C1162   1.384       .  A
C502       C1161   1.384   1_545  A
C502        C503   1.404       .  A
C502        N508   1.346       .  A
C503        C504   1.405       .  A
C503        H512   1.083       .  S
C504       C1159   1.383   1_545  A
C504        C507   1.377       .  A
N505       C1166   1.356       .  A
N505        H515   1.039       .  S
C506        C507   1.394       .  A
C506       N1165   1.358   1_545  A
C507        H513   1.075       .  S
N508       C1169   1.357       .  A
N508        H516   1.044       .  S
C509        C510   1.395       .  A
C509       N1168   1.357       .  A
C510        H514   1.083       .  S
C517       C1842   1.383   1_455  A
C517        C518   1.407       .  A
C517        N523   1.347       .  A
C518        C519   1.408       .  A
C518        H529   1.082       .  S
C519        C528   1.383       .  A
C519       C1840   1.385   1_455  A
C520       C1839   1.384       .  A
C520        C521   1.407       .  A
C520        N526   1.348       .  A
C521        C522   1.407       .  A
C521        H530   1.082       .  S
C522       C1837   1.384       .  A
C522        C525   1.381       .  A
N523       C1844   1.354   1_455  A
N523        H533   1.036       .  S
C524        C525   1.398       .  A
C524       N1843   1.356       .  A
C525        H531   1.083       .  S
N526        C527   1.358       .  A
N526        H534   1.045       .  S
C527       C1848   1.400       .  A
C528       C1847   1.399   1_455  A
C528        H532   1.082       .  S
C535       C1860   1.385       .  A
C535        C536   1.398   1_655  A
C535        N541   1.341   1_655  A
C536        C537   1.398       .  A
C536        H547   1.083       .  S
C537        C546   1.366       .  A
C537       C1858   1.384   1_455  A
C538       C1857   1.382       .  A
C538        C539   1.408       .  A
C538        N544   1.350       .  A
C539        C540   1.409       .  A
C539        H548   1.082       .  S
C540       C1855   1.384       .  A
C540        C543   1.382       .  A
N541       C1862   1.354   1_455  A
N541        H551   1.045       .  S
C542        C543   1.397       .  A
C542       N1861   1.355       .  A
C543        H549   1.082       .  S
N544        C545   1.360       .  A
N544        H552   1.045       .  S
C545       C1866   1.403       .  A
C546       C1865   1.396   1_455  A
C546        H550   1.083       .  S
C553       C1878   1.384       .  A
C553        C554   1.398   1_655  A
C553        N559   1.342   1_655  A
C554        C555   1.398   1_455  A
C554        H565   1.083       .  S
C555        C564   1.367   1_655  A
C555       C1876   1.384       .  A
C556       C1875   1.383       .  A
C556        C557   1.411       .  A
C556        N562   1.354       .  A
C557        C558   1.412       .  A
C557        H566   1.082       .  S
C558       C1873   1.384       .  A
C558        C561   1.386       .  A
N559       C1880   1.354   1_455  A
N559        H569   1.045       .  S
C560        C561   1.401       .  A
C560       N1879   1.355       .  A
C561        H567   1.082       .  S
N562        C563   1.361       .  A
N562        H570   1.044       .  S
C563       C1884   1.398       .  A
C564       C1883   1.395   1_455  A
C564        H568   1.083       .  S
C571        C576   1.385       .  A
C571       C1892   1.408       .  A
C571       N1897   1.349       .  A
C572       C1891   1.409       .  A
C572       C1893   1.409       .  A
C572        H583   1.082       .  S
C573       C1892   1.408       .  A
C573       C1902   1.384       .  A
C573        C574   1.385       .  A
C574        C575   1.400       .  A
C574        N580   1.342       .  A
C575        C576   1.400       .  A
C575        H584   1.083       .  S
C576        C579   1.373       .  A
N577       C1891   1.349       .  A
N577       C1898   1.357       .  A
N577        H587   1.044       .  S
C578        C579   1.392       .  A
C578       N1897   1.356       .  A
C579        H585   1.083       .  S
N580        C581   1.354       .  A
N580        H588   1.045       .  S
C581       C1902   1.398       .  A
C582       C1893   1.384       .  A
C582       C1901   1.399   1_455  A
C582        H586   1.082       .  S
C589        C594   1.384       .  A
C589        C590   1.394       .  A
C589        N595   1.330       .  A
C590        C591   1.390       .  A
C590        H601   1.083       .  S
C591        C600   1.369       .  A
C591        C592   1.384       .  A
C592        C593   1.414       .  A
C592        N598   1.349       .  A
C593        C594   1.412       .  A
C593        H602   1.082       .  S
C594        C597   1.394       .  A
N595        C596   1.352       .  A
N595        H605   1.045       .  S
C596        C597   1.403       .  A
C597        H603   1.082       .  S
N598        C599   1.361       .  A
N598        H606   1.044       .  S
C599        C600   1.388       .  A
C600        H604   1.083       .  S
C607        C612   1.385       .  A
C607        C608   1.405       .  A
C607        N613   1.347       .  A
C608        C609   1.405       .  A
C608        H619   1.082       .  S
C609        C618   1.379       .  A
C609        C610   1.385       .  A
C610        C611   1.402       .  A
C610        N616   1.344       .  A
C611        C612   1.402       .  A
C611        H620   1.083       .  S
C612        C615   1.374       .  A
N613        C614   1.354       .  A
N613        H623   1.043       .  S
C614        C615   1.395       .  A
C615        H621   1.083       .  S
N616        C617   1.355       .  A
N616        H624   1.045       .  S
C617        C618   1.397       .  A
C618        H622   1.082       .  S
C625        C630   1.384       .  A
C625        C626   1.403       .  A
C625        N631   1.345       .  A
C626        C627   1.403       .  A
C626        H637   1.082       .  S
C627        C636   1.376       .  A
C627        C628   1.382       .  A
C628        C629   1.407       .  A
C628        N634   1.346       .  A
C629        C630   1.407       .  A
C629        H638   1.082       .  S
C630        C633   1.382       .  A
N631        C632   1.356       .  A
N631        H641   1.045       .  S
C632        C633   1.398       .  A
C633        H639   1.082       .  S
N634        C635   1.360       .  A
N634        H642   1.045       .  S
C635        C636   1.402       .  A
C636        H640   1.080       .  S
C643        C648   1.383       .  A
C643        C644   1.410       .  A
C643        N649   1.350       .  A
C644        C645   1.410       .  A
C644        H655   1.083       .  S
C645        C654   1.383       .  A
C645        C646   1.385       .  A
C646        C647   1.397       .  A
C646        N652   1.341       .  A
C647        C648   1.397       .  A
C647        H656   1.083       .  S
C648        C651   1.369       .  A
N649        C650   1.359       .  A
N649        H659   1.044       .  S
C650        C651   1.389       .  A
C651        H657   1.081       .  S
N652        C653   1.351       .  A
N652        H660   1.045       .  S
C653        C654   1.400       .  A
C654        H658   1.083       .  S
O661       Cu669   2.010   1_554  S
O661        C671   1.279       .  A
O662       Cu999   2.019       .  S
O662        C672   1.279       .  A
O663       Cu669   1.995   1_554  S
O663        C673   1.275       .  A
O664       Cu999   2.007       .  S
O664        C674   1.277       .  A
O665       Cu670   2.017       .  S
O665        C674   1.279       .  A
O666      Cu1000   2.031   1_554  S
O666        C673   1.281       .  A
O667       Cu670   2.022       .  S
O667        C672   1.279       .  A
O668      Cu1000   2.007   1_554  S
O668        C671   1.276       .  A
Cu669       O992   2.005       .  S
Cu669       O994   2.000       .  S
Cu669     Cu1000   2.375       .  S
Cu670       O996   2.033       .  S
Cu670       O998   2.018       .  S
Cu670      Cu999   2.373       .  S
C671        C929   1.469       .  S
C672        C962   1.478       .  S
C673        C983   1.473       .  S
C674        C947   1.472       .  S
O675      Cu1013   2.013       .  S
O675       C2005   1.279   1_455  A
O676       Cu683   2.023       .  S
O676       C2006   1.279   1_455  A
O677      Cu1013   2.008       .  S
O677       C2007   1.277   1_455  A
O678       Cu683   2.029       .  S
O678       C2008   1.279   1_455  A
O679       Cu684   2.013       .  S
O679        C688   1.278       .  A
O680      Cu1014   2.023       .  S
O680        C687   1.279       .  A
O681       Cu684   2.027       .  S
O681        C686   1.280       .  A
O682      Cu1014   2.019       .  S
O682        C685   1.278       .  A
Cu683      O1005   2.018   1_554  S
Cu683      O1007   2.033   1_554  S
Cu683     Cu2004   2.372   1_455  S
Cu684      O1010   2.023   1_554  S
Cu684      O1012   2.029   1_554  S
Cu684     Cu2003   2.373       .  S
C685       O1995   1.280       .  A
C685        C872   1.481       .  S
C686       O1996   1.276       .  A
C686        C911   1.475       .  S
C687       O1997   1.279       .  A
C687        C890   1.479       .  S
C688       O1998   1.278       .  A
C688        C857   1.474       .  S
O689      Cu1027   2.012   1_554  S
O690       Cu697   2.013       .  S
O691      Cu1027   2.037   1_554  S
O692       Cu697   2.011       .  S
O693      Cu1028   2.023       .  S
O693        C702   1.279   1_565  A
O694       Cu698   2.011   1_554  S
O694        C701   1.278   1_565  A
O695      Cu1028   2.020       .  S
O695        C700   1.279   1_565  A
O696       Cu698   2.016   1_554  S
O696        C699   1.279   1_565  A
Cu697      O1019   2.024       .  S
Cu697      O1021   2.033       .  S
Cu698      O1023   2.013       .  S
Cu698      O1025   2.021       .  S
C699        C782   1.476       .  S
C700        C821   1.481       .  S
C701        C839   1.476       .  S
C702        C800   1.473       .  S
C703       C2024   1.522       .  S
C703        C709   1.537       .  S
C703        C707   1.522       .  S
C703        C875   1.525       .  S
C704       C2023   1.520   1_455  S
C704        H711   1.086       .  S
C704        C705   1.367       .  D
C705       C2026   1.559   1_455  S
C705        C744   1.508       .  S
C706       C2025   1.553       .  S
C706        C710   1.536       .  S
C706        C708   1.557       .  S
C706        H712   1.111       .  S
C707        H713   1.080       .  S
C707        C708   1.374       .  D
C708        C768   1.479       .  S
C709        H714   1.087       .  S
C709        C710   1.363       .  D
C710        C854   1.479       .  S
C715        C716   1.518       .  S
C715        C721   1.537       .  S
C715       C2039   1.522       .  S
C715        C893   1.517       .  S
C716        H723   1.083       .  S
C716        C717   1.372       .  D
C717        C718   1.567       .  S
C717        C753   1.487       .  S
C718        C722   1.534       .  S
C718       C2040   1.558       .  S
C718        H724   1.111       .  S
C719       C2035   1.515   1_455  S
C719        H725   1.087       .  S
C719        C720   1.372       .  D
C720       C2038   1.558       .  S
C720        C729   1.512       .  S
C721        H726   1.087       .  S
C721        C722   1.361       .  D
C722        C908   1.474       .  S
C727        C728   1.509       .  S
C727        C733   1.518       .  S
C727        C731   1.527       .  S
C727        C965   1.526       .  S
C728        H735   1.080       .  S
C728        C729   1.371       .  D
C729        C730   1.568       .  S
C730        C734   1.558       .  S
C730        C732   1.560       .  S
C730        H736   1.110       .  S
C731        H737   1.080       .  S
C731        C732   1.381       .  D
C732        C741   1.527       .  S
C733        H738   1.087       .  S
C733        C734   1.367       .  D
C734        C980   1.472       .  S
C739        C740   1.523       .  S
C739        C745   1.519       .  S
C739        C818   1.532       .  S
C740        H747   1.077       .  S
C740        C741   1.374       .  D
C741        C742   1.569       .  S
C742        C746   1.562       .  S
C742        H748   1.109       .  S
C743        H749   1.080       .  S
C743        C744   1.372       .  D
C745        H750   1.087       .  S
C745        C746   1.369       .  D
C746        C836   1.480       .  S
C751        C752   1.539       .  S
C751        C757   1.527       .  S
C751        C785   1.510       .  S
C752        H759   1.085       .  S
C752        C753   1.376       .  D
C753        C754   1.557       .  S
C754        C758   1.542       .  S
C754        H760   1.109       .  S
C755        H761   1.080       .  S
C755        C756   1.369       .  D
C756        C765   1.508       .  S
C757        H762   1.087       .  S
C757        C758   1.356       .  D
C758        C803   1.470       .  S
C763        C764   1.518       .  S
C763        C769   1.528       .  S
C763        C767   1.535       .  S
C763        C926   1.508       .  S
C764        H771   1.080       .  S
C764        C765   1.371       .  D
C765        C766   1.552       .  S
C766        C770   1.541       .  S
C766        C768   1.551       .  S
C766        H772   1.109       .  S
C767        H773   1.085       .  S
C767        C768   1.376       .  D
C769        H774   1.087       .  S
C769        C770   1.355       .  D
C770        C944   1.471       .  S
C775        C776   1.411       .  A
C775        N781   1.346       .  A
C776        C777   1.408       .  A
C776        H787   1.082       .  S
C777        C786   1.390       .  A
C778        C779   1.398   1_545  A
C778        N784   1.335   1_545  A
C779        C780   1.395       .  A
C779        H788   1.083       .  S
C780        C783   1.374       .  A
N781        H791   1.044       .  S
C782        C783   1.391   1_545  A
C783        H789   1.082       .  S
N784        H792   1.045       .  S
C785        C786   1.400       .  A
C786        H790   1.082       .  S
C793        C798   1.384       .  A
C793        C794   1.405       .  A
C794        C795   1.403       .  A
C794        H805   1.082       .  S
C795        C804   1.382       .  A
C795        C796   1.385       .  A
C796        C797   1.402       .  A
C796        N802   1.340       .  A
C797        C798   1.400       .  A
C797        H806   1.083       .  S
N799        C800   1.357   1_565  A
N799        H809   1.044       .  S
C800        C801   1.394       .  A
C801        H807   1.083       .  S
N802        C803   1.355       .  A
N802        H810   1.045       .  S
C803        C804   1.393       .  A
C811        C812   1.406       .  A
C812        C813   1.404       .  A
C812        H823   1.082       .  S
C813        C822   1.382       .  A
C813        C814   1.383   1_565  A
C814        N820   1.347       .  A
C815        C816   1.405       .  A
C815        H824   1.082       .  S
C816        C819   1.380       .  A
N817        C818   1.362       .  A
N817        H827   1.042       .  S
C818        C819   1.403       .  A
C819        H825   1.082       .  S
N820        C821   1.358       .  A
C821        C822   1.397   1_545  A
C822        H826   1.082       .  S
C829        C830   1.404       .  A
C829        N835   1.343       .  A
C830        C831   1.402       .  A
C830        H841   1.083       .  S
C831        C840   1.379       .  A
C832        C833   1.408       .  A
C832        N838   1.349       .  A
C833        C834   1.408       .  A
C833        H842   1.083       .  S
C834        C837   1.382       .  A
N835        H845   1.044       .  S
C836        C837   1.394       .  A
C837        H843   1.074       .  S
N838        H846   1.044       .  S
C839        C840   1.395   1_545  A
C840        H844   1.082       .  S
C847       C2172   1.384   1_455  A
C847        C848   1.409       .  A
C847        N853   1.348       .  A
C848        C849   1.409       .  A
C848        H859   1.083       .  S
C849        C858   1.386       .  A
C849       C2170   1.384   1_455  A
C850       C2169   1.385       .  A
C850        C851   1.403       .  A
C850        N856   1.344       .  A
C851        C852   1.402       .  A
C851        H860   1.082       .  S
C852       C2167   1.385       .  A
C852        C855   1.376       .  A
N853       C2174   1.355   1_455  A
N853        H863   1.042       .  S
C854        C855   1.395       .  A
C854       N2173   1.356       .  A
C855        H861   1.083       .  S
N856        C857   1.355       .  A
N856        H864   1.045       .  S
C857       C2178   1.397       .  A
C858       C2177   1.400   1_455  A
C858        H862   1.082       .  S
C865       C2190   1.384       .  A
C865        C866   1.399   1_655  A
C865        N871   1.341   1_655  A
C866        C867   1.398   1_455  A
C866        H877   1.083       .  S
C867        C876   1.370   1_655  A
C867       C2188   1.382       .  A
C868       C2187   1.381       .  A
C868        C869   1.410       .  A
C868        N874   1.351       .  A
C869        C870   1.411       .  A
C869        H878   1.082       .  S
C870       C2185   1.384       .  A
C870        C873   1.384       .  A
N871       C2192   1.354   1_455  A
N871        H881   1.045       .  S
C872        C873   1.400       .  A
C872       N2191   1.356       .  A
C873        H879   1.082       .  S
N874        C875   1.361       .  A
N874        H882   1.045       .  S
C875       C2196   1.403       .  A
C876       C2195   1.399   1_455  A
C876        H880   1.082       .  S
C883       C2208   1.385       .  A
C883        C884   1.399   1_655  A
C883        N889   1.342   1_655  A
C884        C885   1.400       .  A
C884        H895   1.083       .  S
C885        C894   1.368       .  A
C885       C2206   1.384   1_455  A
C886       C2205   1.382       .  A
C886        C887   1.409       .  A
C886        N892   1.349       .  A
C887        C888   1.409       .  A
C887        H896   1.082       .  S
C888       C2203   1.384       .  A
C888        C891   1.384       .  A
N889       C2210   1.354   1_455  A
N889        H899   1.045       .  S
C890        C891   1.399       .  A
C890       N2209   1.356       .  A
C891        H897   1.082       .  S
N892        C893   1.360       .  A
N892        H900   1.044       .  S
C893       C2214   1.400       .  A
C894       C2213   1.397   1_455  A
C894        H898   1.083       .  S
C901        C906   1.385       .  A
C901       C2222   1.408       .  A
C901       N2227   1.349       .  A
C902       C2221   1.408       .  A
C902       C2223   1.408       .  A
C902        H913   1.082       .  S
C903       C2222   1.408       .  A
C903       C2232   1.382       .  A
C903        C904   1.385       .  A
C904        C905   1.401       .  A
C904        N910   1.344       .  A
C905        C906   1.401       .  A
C905        H914   1.082       .  S
C906        C909   1.374       .  A
N907       C2221   1.349       .  A
N907       C2228   1.356       .  A
N907        H917   1.044       .  S
C908        C909   1.392       .  A
C908       N2227   1.356       .  A
C909        H915   1.083       .  S
N910        C911   1.354       .  A
N910        H918   1.045       .  S
C911       C2232   1.399       .  A
C912       C2223   1.384       .  A
C912       C2231   1.399   1_455  A
C912        H916   1.082       .  S
C919        C924   1.384       .  A
C919        C920   1.396       .  A
C919        N925   1.332       .  A
C920        C921   1.393       .  A
C920        H931   1.083       .  S
C921        C930   1.372       .  A
C921        C922   1.384       .  A
C922        C923   1.412       .  A
C922        N928   1.346       .  A
C923        C924   1.409       .  A
C923        H932   1.082       .  S
C924        C927   1.392       .  A
N925        C926   1.353       .  A
N925        H935   1.045       .  S
C926        C927   1.402       .  A
C927        H933   1.082       .  S
N928        C929   1.359       .  A
N928        H936   1.044       .  S
C929        C930   1.390       .  A
C930        H934   1.083       .  S
C937        C942   1.384       .  A
C937        C938   1.405       .  A
C937        N943   1.346       .  A
C938        C939   1.405       .  A
C938        H949   1.083       .  S
C939        C948   1.379       .  A
C939        C940   1.385       .  A
C940        C941   1.401       .  A
C940        N946   1.343       .  A
C941        C942   1.400       .  A
C941        H950   1.083       .  S
C942        C945   1.372       .  A
N943        C944   1.354       .  A
N943        H953   1.041       .  S
C944        C945   1.393       .  A
C945        H951   1.083       .  S
N946        C947   1.355       .  A
N946        H954   1.045       .  S
C947        C948   1.397       .  A
C948        H952   1.082       .  S
C955        C960   1.384       .  A
C955        C956   1.403       .  A
C955        N961   1.345       .  A
C956        C957   1.404       .  A
C956        H967   1.082       .  S
C957        C966   1.376       .  A
C957        C958   1.382       .  A
C958        C959   1.407       .  A
C958        N964   1.347       .  A
C959        C960   1.407       .  A
C959        H968   1.082       .  S
C960        C963   1.382       .  A
N961        C962   1.356       .  A
N961        H971   1.045       .  S
C962        C963   1.398       .  A
C963        H969   1.082       .  S
N964        C965   1.359       .  A
N964        H972   1.045       .  S
C965        C966   1.404       .  A
C966        H970   1.080       .  S
C973        C978   1.384       .  A
C973        C974   1.406       .  A
C973        N979   1.348       .  A
C974        C975   1.406       .  A
C974        H985   1.083       .  S
C975        C984   1.378       .  A
C975        C976   1.385       .  A
C976        C977   1.401       .  A
C976        N982   1.345       .  A
C977        C978   1.402       .  A
C977        H986   1.082       .  S
C978        C981   1.373       .  A
N979        C980   1.357       .  A
N979        H989   1.045       .  S
C980        C981   1.393       .  A
C981        H987   1.083       .  S
N982        C983   1.354       .  A
N982        H990   1.045       .  S
C983        C984   1.397       .  A
C984        H988   1.082       .  S
O991       Cu999   2.019       .  S
O991       C1001   1.280       .  A
O992       C1002   1.278       .  A
O993       Cu999   2.004       .  S
O993       C1003   1.276       .  A
O994       C1004   1.275       .  A
O995      Cu1000   2.013       .  S
O995       C1004   1.279       .  A
O996       C1003   1.281       .  A
O997      Cu1000   2.014       .  S
O997       C1002   1.277       .  A
O998       C1001   1.277       .  A
C1001      C1259   1.476       .  S
C1002      C1292   1.470       .  S
C1003      C1313   1.477       .  S
C1004      C1277   1.468       .  S
O1005      C2335   1.279   1_455  A
O1006     Cu1013   2.021       .  S
O1006      C2336   1.278   1_455  A
O1007      C2337   1.281   1_455  A
O1008     Cu1013   2.010       .  S
O1008      C2338   1.277   1_455  A
O1009     Cu1014   2.019       .  S
O1009      C1018   1.279       .  A
O1010      C1017   1.278       .  A
O1011     Cu1014   2.015       .  S
O1011      C1016   1.278       .  A
O1012      C1015   1.279       .  A
Cu1013    Cu2334   2.373   1_455  S
Cu1014    Cu2333   2.372       .  S
C1015      O2325   1.278       .  A
C1015      C1202   1.476       .  S
C1016      O2326   1.280       .  A
C1016      C1241   1.479       .  S
C1017      O2327   1.278       .  A
C1017      C1220   1.474       .  S
C1018      O2328   1.278       .  A
C1018      C1187   1.477       .  S
O1020     Cu1027   2.003       .  S
O1022     Cu1027   2.017       .  S
O1023      C1032   1.277   1_565  A
O1024     Cu1028   2.025       .  S
O1024      C1031   1.279   1_565  A
O1025      C1030   1.279       .  A
O1026     Cu1028   2.022       .  S
O1026      C1029   1.279   1_565  A
C1029      C1112   1.479       .  S
C1030      C1151   1.474       .  S
C1031      C1169   1.482       .  S
C1032      C1130   1.467       .  S
C1033      C2354   1.517       .  S
C1033      C1039   1.536       .  S
C1033      C1037   1.523       .  S
C1033      C1205   1.514       .  S
C1034      C2353   1.524   1_455  S
C1034      H1041   1.085       .  S
C1034      C1035   1.369       .  D
C1035      C2356   1.556   1_455  S
C1035      C1074   1.510       .  S
C1036      C2355   1.558       .  S
C1036      C1040   1.541       .  S
C1036      C1038   1.561       .  S
C1036      H1042   1.111       .  S
C1037      H1043   1.077       .  S
C1037      C1038   1.373       .  D
C1038      C1098   1.487       .  S
C1039      H1044   1.087       .  S
C1039      C1040   1.360       .  D
C1040      C1184   1.478       .  S
C1045      C1046   1.512       .  S
C1045      C1051   1.540       .  S
C1045      C2369   1.521       .  S
C1045      C1223   1.520       .  S
C1046      H1053   1.080       .  S
C1046      C1047   1.368       .  D
C1047      C1048   1.566       .  S
C1047      C1083   1.483       .  S
C1048      C1052   1.537       .  S
C1048      C2370   1.560       .  S
C1048      H1054   1.111       .  S
C1049      C2365   1.524   1_455  S
C1049      H1055   1.087       .  S
C1049      C1050   1.373       .  D
C1050      C2368   1.554   1_455  S
C1050      C1059   1.513       .  S
C1051      H1056   1.087       .  S
C1051      C1052   1.365       .  D
C1052      C1238   1.479       .  S
C1057      C1058   1.511       .  S
C1057      C1063   1.512       .  S
C1057      C1061   1.523       .  S
C1057      C1295   1.514       .  S
C1058      H1065   1.082       .  S
C1058      C1059   1.373       .  D
C1059      C1060   1.574       .  S
C1060      C1064   1.563       .  S
C1060      C1062   1.559       .  S
C1060      H1066   1.110       .  S
C1061      H1067   1.080       .  S
C1061      C1062   1.375       .  D
C1062      C1071   1.522       .  S
C1063      H1068   1.087       .  S
C1063      C1064   1.363       .  D
C1064      C1310   1.476       .  S
C1069      C1070   1.521       .  S
C1069      C1075   1.517       .  S
C1069      C1148   1.529       .  S
C1070      H1077   1.075       .  S
C1070      C1071   1.375       .  D
C1071      C1072   1.564       .  S
C1072      C1076   1.557       .  S
C1072      H1078   1.110       .  S
C1073      H1079   1.081       .  S
C1073      C1074   1.371       .  D
C1075      H1080   1.087       .  S
C1075      C1076   1.366       .  D
C1076      C1166   1.472       .  S
C1081      C1082   1.538       .  S
C1081      C1087   1.531       .  S
C1081      C1115   1.518       .  S
C1082      H1089   1.084       .  S
C1082      C1083   1.376       .  D
C1083      C1084   1.556       .  S
C1084      C1088   1.544       .  S
C1084      H1090   1.109       .  S
C1085      H1091   1.079       .  S
C1085      C1086   1.371       .  D
C1086      C1095   1.510       .  S
C1087      H1092   1.087       .  S
C1087      C1088   1.360       .  D
C1088      C1133   1.478       .  S
C1093      C1094   1.516       .  S
C1093      C1099   1.527       .  S
C1093      C1097   1.534       .  S
C1093      C1256   1.512       .  S
C1094      H1101   1.079       .  S
C1094      C1095   1.371       .  D
C1095      C1096   1.556       .  S
C1096      C1100   1.543       .  S
C1096      C1098   1.557       .  S
C1096      H1102   1.109       .  S
C1097      H1103   1.082       .  S
C1097      C1098   1.375       .  D
C1099      H1104   1.087       .  S
C1099      C1100   1.358       .  D
C1100      C1274   1.473       .  S
C1105      C1106   1.416       .  A
C1105      N1111   1.351       .  A
C1106      C1107   1.414       .  A
C1106      H1117   1.082       .  S
C1107      C1116   1.395       .  A
C1108      C1109   1.402   1_545  A
C1108      N1114   1.337   1_545  A
C1109      C1110   1.399       .  A
C1109      H1118   1.083       .  S
C1110      C1113   1.379       .  A
N1111      H1121   1.044       .  S
C1112      C1113   1.394   1_545  A
C1113      H1119   1.082       .  S
N1114      H1122   1.045       .  S
C1115      C1116   1.405       .  A
C1116      H1120   1.082       .  S
C1123      C1128   1.384       .  A
C1123      C1124   1.409       .  A
C1124      C1125   1.408       .  A
C1124      H1135   1.082       .  S
C1125      C1134   1.385       .  A
C1125      C1126   1.384       .  A
C1126      C1127   1.402       .  A
C1126      N1132   1.342       .  A
C1127      C1128   1.401       .  A
C1127      H1136   1.083       .  S
N1129      C1130   1.357   1_565  A
N1129      H1139   1.044       .  S
C1130      C1131   1.391       .  A
C1131      H1137   1.083       .  S
N1132      C1133   1.355       .  A
N1132      H1140   1.045       .  S
C1133      C1134   1.394       .  A
C1141      C1142   1.405       .  A
C1142      C1143   1.402       .  A
C1142      H1153   1.082       .  S
C1143      C1152   1.381       .  A
C1143      C1144   1.384   1_565  A
C1144      N1150   1.345       .  A
C1145      C1146   1.404       .  A
C1145      H1154   1.083       .  S
C1146      C1149   1.376       .  A
N1147      C1148   1.360       .  A
N1147      H1157   1.043       .  S
C1148      C1149   1.403       .  A
C1149      H1155   1.082       .  S
N1150      C1151   1.357   1_545  A
C1151      C1152   1.395       .  A
C1152      H1156   1.082       .  S
C1159      C1160   1.408       .  A
C1159      N1165   1.348       .  A
C1160      C1161   1.408       .  A
C1160      H1171   1.082       .  S
C1161      C1170   1.383       .  A
C1162      C1163   1.406       .  A
C1162      N1168   1.347       .  A
C1163      C1164   1.406       .  A
C1163      H1172   1.083       .  S
C1164      C1167   1.380       .  A
N1165      H1175   1.044       .  S
C1166      C1167   1.391       .  A
C1167      H1173   1.073       .  S
N1168      H1176   1.044       .  S
C1169      C1170   1.398   1_545  A
C1170      H1174   1.082       .  S
C1177      C2502   1.385   1_455  A
C1177      C1178   1.407       .  A
C1177      N1183   1.348       .  A
C1178      C1179   1.407       .  A
C1178      H1189   1.082       .  S
C1179      C1188   1.381       .  A
C1179      C2500   1.385   1_455  A
C1180      C2499   1.384       .  A
C1180      C1181   1.403       .  A
C1180      N1186   1.343       .  A
C1181      C1182   1.402       .  A
C1181      H1190   1.082       .  S
C1182      C2497   1.384       .  A
C1182      C1185   1.377       .  A
N1183      C2504   1.356   1_455  A
N1183      H1193   1.044       .  S
C1184      C1185   1.394       .  A
C1184      N2503   1.355       .  A
C1185      H1191   1.082       .  S
N1186      C1187   1.355       .  A
N1186      H1194   1.045       .  S
C1187      C2508   1.399       .  A
C1188      C2507   1.398   1_455  A
C1188      H1192   1.082       .  S
C1195      C2520   1.384       .  A
C1195      C1196   1.399   1_655  A
C1195      N1201   1.342   1_655  A
C1196      C1197   1.399   1_455  A
C1196      H1207   1.083       .  S
C1197      C1206   1.369   1_655  A
C1197      C2518   1.381       .  A
C1198      C2517   1.383       .  A
C1198      C1199   1.411       .  A
C1198      N1204   1.352       .  A
C1199      C1200   1.412       .  A
C1199      H1208   1.082       .  S
C1200      C2515   1.385       .  A
C1200      C1203   1.388       .  A
N1201      C2522   1.354   1_455  A
N1201      H1211   1.045       .  S
C1202      C1203   1.401       .  A
C1202      N2521   1.353       .  A
C1203      H1209   1.082       .  S
N1204      C1205   1.361       .  A
N1204      H1212   1.043       .  S
C1205      C2526   1.395       .  A
C1206      C2525   1.400   1_455  A
C1206      H1210   1.082       .  S
C1213      C2538   1.384   1_455  A
C1213      C1214   1.401       .  A
C1213      N1219   1.346       .  A
C1214      C1215   1.402       .  A
C1214      H1225   1.083       .  S
C1215      C1224   1.371       .  A
C1215      C2536   1.382   1_455  A
C1216      C2535   1.382       .  A
C1216      C1217   1.408       .  A
C1216      N1222   1.348       .  A
C1217      C1218   1.408       .  A
C1217      H1226   1.082       .  S
C1218      C2533   1.385       .  A
C1218      C1221   1.383       .  A
N1219      C2540   1.355   1_455  A
N1219      H1229   1.045       .  S
C1220      C1221   1.398       .  A
C1220      N2539   1.354       .  A
C1221      H1227   1.082       .  S
N1222      C1223   1.359       .  A
N1222      H1230   1.045       .  S
C1223      C2544   1.401       .  A
C1224      C2543   1.399   1_455  A
C1224      H1228   1.082       .  S
C1231      C1236   1.385       .  A
C1231      C2552   1.409       .  A
C1231      N2557   1.350       .  A
C1232      C2551   1.408       .  A
C1232      C2553   1.409       .  A
C1232      H1243   1.082       .  S
C1233      C2552   1.409       .  A
C1233      C2562   1.385       .  A
C1233      C1234   1.384       .  A
C1234      C1235   1.402       .  A
C1234      N1240   1.344       .  A
C1235      C1236   1.402       .  A
C1235      H1244   1.082       .  S
C1236      C1239   1.376       .  A
N1237      C2551   1.349       .  A
N1237      C2558   1.356   1_455  A
N1237      H1247   1.044       .  S
C1238      C1239   1.393       .  A
C1238      N2557   1.357       .  A
C1239      H1245   1.083       .  S
N1240      C1241   1.356       .  A
N1240      H1248   1.045       .  S
C1241      C2562   1.399       .  A
C1242      C2553   1.384       .  A
C1242      C2561   1.399   1_455  A
C1242      H1246   1.082       .  S
C1249      C1254   1.383       .  A
C1249      C1250   1.397       .  A
C1249      N1255   1.334       .  A
C1250      C1251   1.394       .  A
C1250      H1261   1.083       .  S
C1251      C1260   1.373       .  A
C1251      C1252   1.384       .  A
C1252      C1253   1.414       .  A
C1252      N1258   1.350       .  A
C1253      C1254   1.412       .  A
C1253      H1262   1.082       .  S
C1254      C1257   1.393       .  A
N1255      C1256   1.354       .  A
N1255      H1265   1.045       .  S
C1256      C1257   1.403       .  A
C1257      H1263   1.082       .  S
N1258      C1259   1.361       .  A
N1258      H1266   1.044       .  S
C1259      C1260   1.391       .  A
C1260      H1264   1.082       .  S
C1267      C1272   1.384       .  A
C1267      C1268   1.406       .  A
C1267      N1273   1.348       .  A
C1268      C1269   1.407       .  A
C1268      H1279   1.083       .  S
C1269      C1278   1.380       .  A
C1269      C1270   1.386       .  A
C1270      C1271   1.397       .  A
C1270      N1276   1.341       .  A
C1271      C1272   1.397       .  A
C1271      H1280   1.083       .  S
C1272      C1275   1.368       .  A
N1273      C1274   1.355       .  A
N1273      H1283   1.042       .  S
C1274      C1275   1.391       .  A
C1275      H1281   1.083       .  S
N1276      C1277   1.352       .  A
N1276      H1284   1.045       .  S
C1277      C1278   1.398       .  A
C1278      H1282   1.082       .  S
C1285      C1290   1.384       .  A
C1285      C1286   1.400       .  A
C1285      N1291   1.340       .  A
C1286      C1287   1.399       .  A
C1286      H1297   1.082       .  S
C1287      C1296   1.375       .  A
C1287      C1288   1.383       .  A
C1288      C1289   1.406       .  A
C1288      N1294   1.342       .  A
C1289      C1290   1.405       .  A
C1289      H1298   1.083       .  S
C1290      C1293   1.382       .  A
N1291      C1292   1.353       .  A
N1291      H1301   1.044       .  S
C1292      C1293   1.398       .  A
C1293      H1299   1.082       .  S
N1294      C1295   1.359       .  A
N1294      H1302   1.045       .  S
C1295      C1296   1.398       .  A
C1296      H1300   1.080       .  S
C1303      C1308   1.383       .  A
C1303      C1304   1.407       .  A
C1303      N1309   1.349       .  A
C1304      C1305   1.407       .  A
C1304      H1315   1.082       .  S
C1305      C1314   1.380       .  A
C1305      C1306   1.384       .  A
C1306      C1307   1.403       .  A
C1306      N1312   1.346       .  A
C1307      C1308   1.404       .  A
C1307      H1316   1.083       .  S
C1308      C1311   1.374       .  A
N1309      C1310   1.357       .  A
N1309      H1319   1.045       .  S
C1310      C1311   1.397       .  A
C1311      H1317   1.083       .  S
N1312      C1313   1.356       .  A
N1312      H1320   1.045       .  S
C1313      C1314   1.397       .  A
C1314      H1318   1.082       .  S
O1321     Cu1329   2.014   1_554  S
O1321      C1331   1.280       .  A
O1322     Cu1659   2.016       .  S
O1322      C1332   1.279       .  A
O1323     Cu1329   2.000   1_554  S
O1323      C1333   1.275       .  A
O1324     Cu1659   2.009       .  S
O1324      C1334   1.277       .  A
O1325     Cu1330   2.022       .  S
O1325      C1334   1.280       .  A
O1326     Cu1660   2.025   1_554  S
O1326      C1333   1.280       .  A
O1327     Cu1330   2.010       .  S
O1327      C1332   1.277       .  A
O1328     Cu1660   2.015   1_554  S
O1328      C1331   1.276       .  A
Cu1329     O1652   2.014       .  S
Cu1329     O1654   2.005       .  S
Cu1329    Cu1660   2.374       .  S
Cu1330     O1656   2.034       .  S
Cu1330     O1658   2.007       .  S
Cu1330    Cu1659   2.374       .  S
C1331      C1589   1.473       .  S
C1332      C1622   1.473       .  S
C1333      C1643   1.472       .  S
C1334      C1607   1.476       .  S
O1335     Cu1673   2.012       .  S
O1336     Cu1343   2.015       .  S
O1337     Cu1673   2.021       .  S
O1338     Cu1343   2.029       .  S
O1339     Cu1344   2.026       .  S
O1339      C1348   1.280       .  A
O1340     Cu1674   2.009       .  S
O1340      C1347   1.277       .  A
O1341     Cu1344   2.014       .  S
O1341      C1346   1.278       .  A
O1342     Cu1674   2.011       .  S
O1342      C1345   1.277       .  A
Cu1343     O1665   2.015   1_554  S
Cu1343     O1667   2.030   1_554  S
Cu1344     O1670   2.034   1_554  S
Cu1344     O1672   2.023   1_554  S
C1345      C1532   1.473       .  S
C1346      C1571   1.472       .  S
C1347      C1550   1.475       .  S
C1348      C1517   1.481       .  S
O1349     Cu1687   2.023   1_554  S
O1349      C2019   1.278       .  A
O1350     Cu1357   2.003       .  S
O1350      C2020   1.277   1_545  A
O1351     Cu1687   2.026   1_554  S
O1351      C2021   1.280       .  A
O1352     Cu1357   2.001       .  S
O1352      C2022   1.277       .  A
O1353     Cu1688   2.019       .  S
O1353      C1362   1.278       .  A
O1354     Cu1358   2.013   1_554  S
O1354      C1361   1.278       .  A
O1355     Cu1688   2.022       .  S
O1355      C1360   1.280       .  A
O1356     Cu1358   2.006   1_554  S
O1356      C1359   1.279       .  A
Cu1357     O1679   2.019       .  S
Cu1357     O1681   2.025       .  S
Cu1357    Cu2348   2.376   1_545  S
Cu1358     O1683   2.014       .  S
Cu1358     O1685   2.013       .  S
Cu1358    Cu2347   2.375       .  S
C1359      O2009   1.277       .  A
C1359      C1442   1.472       .  S
C1360      O2010   1.278       .  A
C1360      C1481   1.478       .  S
C1361      O2011   1.280       .  A
C1361      C1499   1.480       .  S
C1362      O2012   1.277       .  A
C1362      C1460   1.470       .  S
C1363      C1369   1.538       .  S
C1363      C1367   1.521       .  S
C1363      C1535   1.520       .  S
C1364      H1371   1.086       .  S
C1364      C1365   1.370       .  D
C1365      C1404   1.514       .  S
C1366      C1370   1.541       .  S
C1366      C1368   1.566       .  S
C1366      H1372   1.111   1_655  S
C1367      H1373   1.080       .  S
C1367      C1368   1.372       .  D
C1368      C1428   1.484       .  S
C1369      H1374   1.087       .  S
C1369      C1370   1.363       .  D
C1370      C1514   1.483       .  S
C1375      C1376   1.520       .  S
C1375      C1381   1.538       .  S
C1375      C1553   1.518       .  S
C1376      H1383   1.082       .  S
C1376      C1377   1.375       .  D
C1377      C1378   1.563       .  S
C1377      C1413   1.484       .  S
C1378      C1382   1.534       .  S
C1378      H1384   1.111       .  S
C1379      H1385   1.086       .  S
C1379      C1380   1.372       .  D
C1380      C1389   1.518       .  S
C1381      H1386   1.087       .  S
C1381      C1382   1.362       .  D
C1382      C1568   1.474       .  S
C1387      C1388   1.511       .  S
C1387      C1393   1.515       .  S
C1387      C1391   1.528       .  S
C1387      C1625   1.524       .  S
C1388      H1395   1.079       .  S
C1388      C1389   1.372       .  D
C1389      C1390   1.569       .  S
C1390      C1394   1.560       .  S
C1390      C1392   1.561       .  S
C1390      H1396   1.109       .  S
C1391      H1397   1.080       .  S
C1391      C1392   1.381       .  D
C1392      C1401   1.526       .  S
C1393      H1398   1.087       .  S
C1393      C1394   1.365       .  D
C1394      C1640   1.472       .  S
C1399      C1400   1.526   1_565  S
C1399      C1405   1.517   1_565  S
C1399      C2063   1.514       .  S
C1399      C1478   1.523       .  S
C1400      H1407   1.079       .  S
C1400      C1401   1.375       .  D
C1401      C1402   1.566       .  S
C1402      C1406   1.565       .  S
C1402      C2064   1.562   1_545  S
C1402      H1408   1.109       .  S
C1403      C2059   1.521       .  S
C1403      H1409   1.077       .  S
C1403      C1404   1.372       .  D
C1404      C2062   1.560       .  S
C1405      H1410   1.087       .  S
C1405      C1406   1.369       .  D
C1406      C1496   1.479       .  S
C1411      C1412   1.542       .  S
C1411      C1417   1.527       .  S
C1411      C2075   1.520   1_545  S
C1411      C1445   1.516       .  S
C1412      H1419   1.085       .  S
C1412      C1413   1.379       .  D
C1413      C1414   1.549       .  S
C1414      C1418   1.539       .  S
C1414      C2076   1.548   1_545  S
C1414      H1420   1.109   1_545  S
C1415      C2071   1.519       .  S
C1415      H1421   1.079       .  S
C1415      C1416   1.370       .  D
C1416      C2074   1.552       .  S
C1416      C1425   1.512       .  S
C1417      H1422   1.087       .  S
C1417      C1418   1.356       .  D
C1418      C1463   1.468       .  S
C1423      C1424   1.516       .  S
C1423      C1429   1.527       .  S
C1423      C1427   1.534       .  S
C1423      C1586   1.509       .  S
C1424      H1431   1.080       .  S
C1424      C1425   1.371       .  D
C1425      C1426   1.558       .  S
C1426      C1430   1.549       .  S
C1426      C1428   1.556       .  S
C1426      H1432   1.109       .  S
C1427      H1433   1.084       .  S
C1427      C1428   1.375       .  D
C1429      H1434   1.088       .  S
C1429      C1430   1.355       .  D
C1430      C1604   1.480       .  S
C1435      C2100   1.384   1_545  A
C1435      C1436   1.413       .  A
C1435      N1441   1.349       .  A
C1436      C1437   1.411       .  A
C1436      H1447   1.082       .  S
C1437      C1446   1.393       .  A
C1437      C2098   1.383       .  A
C1438      C2097   1.383       .  A
C1438      C1439   1.396       .  A
C1438      N1444   1.333       .  A
C1439      C1440   1.393       .  A
C1439      H1448   1.083       .  S
C1440      C2095   1.383       .  A
C1440      C1443   1.371       .  A
N1441      C2102   1.360       .  A
N1441      H1451   1.044       .  S
C1442      C1443   1.389       .  A
C1442      N2101   1.361       .  A
C1443      H1449   1.083       .  S
N1444      C2105   1.354       .  A
N1444      H1452   1.045       .  S
C1445      C1446   1.402       .  A
C1445      N2104   1.356   1_545  A
C1446      H1450   1.082       .  S
C1453      C1458   1.385   1_565  A
C1453      C1454   1.403       .  A
C1453      N2119   1.343       .  A
C1454      C1455   1.402       .  A
C1454      H1465   1.082       .  S
C1455      C1464   1.379       .  A
C1455      C1456   1.385   1_565  A
C1456      C1457   1.401       .  A
C1456      N1462   1.340       .  A
C1457      C1458   1.400       .  A
C1457      H1466   1.083       .  S
C1458      C2121   1.376       .  A
N1459      C2113   1.347       .  A
N1459      C1460   1.358       .  A
N1459      H1469   1.045       .  S
C1460      C1461   1.391       .  A
C1461      C2118   1.371       .  A
C1461      H1467   1.083       .  S
N1462      C1463   1.354       .  A
N1462      H1470   1.045       .  S
C1463      C1464   1.390   1_545  A
C1464      H2128   1.077       .  S
H1468      C2124   1.079       .  S
C1471      C2136   1.381       .  A
C1471      C1472   1.403       .  A
C1471      N2137   1.341       .  A
C1472      C1473   1.400       .  A
C1472      H1483   1.082       .  S
C1473      C1482   1.378       .  A
C1473      C1474   1.383       .  A
C1474      C2135   1.410       .  A
C1474      N1480   1.347       .  A
C1475      C2134   1.404       .  A
C1475      C1476   1.402       .  A
C1475      H1484   1.082       .  S
C1476      C2131   1.382   1_545  A
C1476      C1479   1.379       .  A
N1477      C2131   1.338       .  A
N1477      C1478   1.362       .  A
N1477      H1487   1.041       .  S
C1478      C1479   1.399   1_565  A
C1479      H1485   1.082       .  S
N1480      C1481   1.359       .  A
N1480      H2148   1.044       .  S
C1481      C1482   1.394       .  A
C1482      H1486   1.082       .  S
H1488      N2140   1.044       .  S
C1489      C2154   1.382       .  A
C1489      C1490   1.404       .  A
C1489      N1495   1.343       .  A
C1490      C1491   1.402       .  A
C1490      H1501   1.083       .  S
C1491      C1500   1.378       .  A
C1491      C2152   1.383       .  A
C1492      C2151   1.384   1_545  A
C1492      C1493   1.407       .  A
C1492      N1498   1.347       .  A
C1493      C1494   1.406       .  A
C1493      H1502   1.083       .  S
C1494      C2149   1.383   1_545  A
C1494      C1497   1.382       .  A
N1495      C2156   1.356       .  A
N1495      H1505   1.041       .  S
C1496      C1497   1.395       .  A
C1496      N2155   1.358   1_545  A
C1497      H1503   1.075       .  S
N1498      C2159   1.357       .  A
N1498      H1506   1.044       .  S
C1499      C1500   1.395       .  A
C1499      N2158   1.358       .  A
C1500      H1504   1.082       .  S
C1507      C1508   1.409       .  A
C1507      N1513   1.349       .  A
C1508      C1509   1.409       .  A
C1508      H1519   1.082       .  S
C1509      C1518   1.386       .  A
C1510      C1511   1.405       .  A
C1510      N1516   1.346       .  A
C1511      C1512   1.405       .  A
C1511      H1520   1.082       .  S
C1512      C1515   1.379       .  A
N1513      H1523   1.038       .  S
C1514      C1515   1.396       .  A
C1515      H1521   1.083       .  S
N1516      C1517   1.357       .  A
N1516      H1524   1.045       .  S
C1518      H1522   1.082       .  S
C1525      C1526   1.399       .  A
C1525      N1531   1.341       .  A
C1526      C1527   1.398       .  A
C1526      H1537   1.083       .  S
C1527      C1536   1.369       .  A
C1528      C1529   1.410       .  A
C1528      N1534   1.351       .  A
C1529      C1530   1.411       .  A
C1529      H1538   1.082       .  S
C1530      C1533   1.384       .  A
N1531      H1541   1.045       .  S
C1532      C1533   1.399       .  A
C1533      H1539   1.082       .  S
N1534      C1535   1.361       .  A
N1534      H1542   1.045       .  S
C1536      H1540   1.083       .  S
C1543      C1544   1.399       .  A
C1543      N1549   1.343       .  A
C1544      C1545   1.399       .  A
C1544      H1555   1.083       .  S
C1545      C1554   1.367       .  A
C1546      C1547   1.409       .  A
C1546      N1552   1.351       .  A
C1547      C1548   1.410       .  A
C1547      H1556   1.082       .  S
C1548      C1551   1.382       .  A
N1549      H1559   1.045       .  S
C1550      C1551   1.399       .  A
C1551      H1557   1.082       .  S
N1552      C1553   1.360       .  A
N1552      H1560   1.045       .  S
C1554      H1558   1.083       .  S
C1561      C1566   1.385   1_455  A
C1562      H1573   1.082       .  S
C1563      C1564   1.385   1_455  A
C1564      C1565   1.404       .  A
C1564      N1570   1.344       .  A
C1565      C1566   1.403       .  A
C1565      H1574   1.083       .  S
C1566      C1569   1.377       .  A
N1567      H1577   1.045       .  S
C1568      C1569   1.395       .  A
C1569      H1575   1.083       .  S
N1570      C1571   1.356       .  A
N1570      H1578   1.045       .  S
C1572      H1576   1.082       .  S
C1579      C1584   1.384       .  A
C1579      C1580   1.396       .  A
C1579      N1585   1.333       .  A
C1580      C1581   1.393       .  A
C1580      H1591   1.083       .  S
C1581      C1590   1.372       .  A
C1581      C1582   1.384       .  A
C1582      C1583   1.414       .  A
C1582      N1588   1.349       .  A
C1583      C1584   1.411       .  A
C1583      H1592   1.082       .  S
C1584      C1587   1.393       .  A
N1585      C1586   1.353       .  A
N1585      H1595   1.045       .  S
C1586      C1587   1.402       .  A
C1587      H1593   1.082       .  S
N1588      C1589   1.361       .  A
N1588      H1596   1.044       .  S
C1589      C1590   1.390       .  A
C1590      H1594   1.083       .  S
C1597      C1602   1.383       .  A
C1597      C1598   1.408       .  A
C1597      N1603   1.349       .  A
C1598      C1599   1.408       .  A
C1598      H1609   1.082       .  S
C1599      C1608   1.382       .  A
C1599      C1600   1.385       .  A
C1600      C1601   1.402       .  A
C1600      N1606   1.344       .  A
C1601      C1602   1.402       .  A
C1601      H1610   1.083       .  S
C1602      C1605   1.374       .  A
N1603      C1604   1.357       .  A
N1603      H1613   1.043       .  S
C1604      C1605   1.395       .  A
C1605      H1611   1.082       .  S
N1606      C1607   1.355       .  A
N1606      H1614   1.045       .  S
C1607      C1608   1.399       .  A
C1608      H1612   1.082       .  S
C1615      C1620   1.384       .  A
C1615      C1616   1.401       .  A
C1615      N1621   1.344       .  A
C1616      C1617   1.402       .  A
C1616      H1627   1.082       .  S
C1617      C1626   1.374       .  A
C1617      C1618   1.382       .  A
C1618      C1619   1.406       .  A
C1618      N1624   1.346       .  A
C1619      C1620   1.406       .  A
C1619      H1628   1.082       .  S
C1620      C1623   1.380       .  A
N1621      C1622   1.355       .  A
N1621      H1631   1.045       .  S
C1622      C1623   1.397       .  A
C1623      H1629   1.082       .  S
N1624      C1625   1.359       .  A
N1624      H1632   1.045       .  S
C1625      C1626   1.403       .  A
C1626      H1630   1.080       .  S
C1633      C1638   1.384       .  A
C1633      C1634   1.407       .  A
C1633      N1639   1.348       .  A
C1634      C1635   1.407       .  A
C1634      H1645   1.082       .  S
C1635      C1644   1.380       .  A
C1635      C1636   1.385       .  A
C1636      C1637   1.401       .  A
C1636      N1642   1.344       .  A
C1637      C1638   1.401       .  A
C1637      H1646   1.082       .  S
C1638      C1641   1.372       .  A
N1639      C1640   1.357       .  A
N1639      H1649   1.045       .  S
C1640      C1641   1.394       .  A
C1641      H1647   1.083       .  S
N1642      C1643   1.354       .  A
N1642      H1650   1.045       .  S
C1643      C1644   1.397       .  A
C1644      H1648   1.082       .  S
O1651     Cu1659   2.020       .  S
O1651      C1661   1.280       .  A
O1652      C1662   1.279       .  A
O1653     Cu1659   2.004       .  S
O1653      C1663   1.276       .  A
O1654      C1664   1.276       .  A
O1655     Cu1660   2.007       .  S
O1655      C1664   1.278       .  A
O1656      C1663   1.281       .  A
O1657     Cu1660   2.019       .  S
O1657      C1662   1.278       .  A
O1658      C1661   1.275       .  A
C1661      C1919   1.472       .  S
C1662      C1952   1.475       .  S
C1663      C1973   1.476       .  S
C1664      C1937   1.467       .  S
O1666     Cu1673   2.020       .  S
O1668     Cu1673   2.033       .  S
O1669     Cu1674   2.012       .  S
O1669      C1678   1.278       .  A
O1670      C1677   1.280       .  A
O1671     Cu1674   2.007       .  S
O1671      C1676   1.278       .  A
O1672      C1675   1.279       .  A
C1675      C1862   1.474       .  S
C1676      C1901   1.472       .  S
C1677      C1880   1.480       .  S
C1678      C1847   1.474       .  S
O1679      C2349   1.277       .  A
O1680     Cu1687   2.014       .  S
O1680      C2350   1.278       .  A
O1681      C2351   1.279       .  A
O1682     Cu1687   2.004       .  S
O1682      C2352   1.277       .  A
O1683      C1692   1.277       .  A
O1684     Cu1688   2.015       .  S
O1684      C1691   1.278       .  A
O1685      C1690   1.278       .  A
O1686     Cu1688   2.019       .  S
O1686      C1689   1.280       .  A
Cu1687    Cu2018   2.373   1_545  S
Cu1688    Cu2017   2.373       .  S
C1689      O2339   1.277       .  A
C1689      C1772   1.475       .  S
C1690      O2340   1.277       .  A
C1690      C1811   1.470       .  S
C1691      O2341   1.280       .  A
C1691      C1829   1.480       .  S
C1692      O2342   1.277       .  A
C1692      C1790   1.468       .  S
C1693      C1699   1.534       .  S
C1693      C1697   1.525       .  S
C1693      C1865   1.513       .  S
C1694      H1701   1.085       .  S
C1694      C1695   1.369       .  D
C1695      C1734   1.512       .  S
C1696      C1700   1.540       .  S
C1696      C1698   1.564       .  S
C1696      H1702   1.110   1_655  S
C1697      H1703   1.077       .  S
C1697      C1698   1.374       .  D
C1698      C1758   1.490       .  S
C1699      H1704   1.087       .  S
C1699      C1700   1.358       .  D
C1700      C1844   1.475       .  S
C1705      C1706   1.520       .  S
C1705      C1711   1.538       .  S
C1705      C1883   1.516       .  S
C1706      H1713   1.079       .  S
C1706      C1707   1.373       .  D
C1707      C1708   1.567       .  S
C1707      C1743   1.490       .  S
C1708      C1712   1.537   1_655  S
C1708      H1714   1.111   1_655  S
C1709      H1715   1.087       .  S
C1709      C1710   1.373       .  D
C1710      C1719   1.517       .  S
C1711      H1716   1.087       .  S
C1711      C1712   1.360   1_655  D
C1712      C1898   1.474       .  S
C1717      C1718   1.511       .  S
C1717      C1723   1.517       .  S
C1717      C1721   1.526       .  S
C1717      C1955   1.522       .  S
C1718      H1725   1.080       .  S
C1718      C1719   1.371       .  D
C1719      C1720   1.570       .  S
C1720      C1724   1.561       .  S
C1720      C1722   1.558       .  S
C1720      H1726   1.109       .  S
C1721      H1727   1.081       .  S
C1721      C1722   1.377       .  D
C1722      C1731   1.521       .  S
C1723      H1728   1.087       .  S
C1723      C1724   1.367       .  D
C1724      C1970   1.474       .  S
C1729      C1730   1.526   1_565  S
C1729      C1735   1.520       .  S
C1729      C2393   1.520       .  S
C1729      C1808   1.532       .  S
C1730      H1737   1.077       .  S
C1730      C1731   1.376       .  D
C1731      C1732   1.564       .  S
C1732      C1736   1.555       .  S
C1732      C2394   1.556   1_545  S
C1732      H1738   1.109       .  S
C1733      C2389   1.515       .  S
C1733      H1739   1.079       .  S
C1733      C1734   1.369       .  D
C1734      C2392   1.565       .  S
C1735      H1740   1.087       .  S
C1735      C1736   1.368   1_565  D
C1736      C1826   1.474   1_545  S
C1741      C1742   1.538       .  S
C1741      C1747   1.527       .  S
C1741      C2405   1.517   1_545  S
C1741      C1775   1.516       .  S
C1742      H1749   1.079       .  S
C1742      C1743   1.379       .  D
C1743      C1744   1.555       .  S
C1744      C1748   1.542       .  S
C1744      C2406   1.553   1_545  S
C1744      H1750   1.109   1_545  S
C1745      C2401   1.517       .  S
C1745      H1751   1.079       .  S
C1745      C1746   1.372       .  D
C1746      C2404   1.552       .  S
C1746      C1755   1.512       .  S
C1747      H1752   1.087       .  S
C1747      C1748   1.357       .  D
C1748      C1793   1.471       .  S
C1753      C1754   1.513       .  S
C1753      C1759   1.523       .  S
C1753      C1757   1.535       .  S
C1753      C1916   1.511       .  S
C1754      H1761   1.079       .  S
C1754      C1755   1.370       .  D
C1755      C1756   1.560       .  S
C1756      C1760   1.545       .  S
C1756      C1758   1.557       .  S
C1756      H1762   1.109       .  S
C1757      H1763   1.080       .  S
C1757      C1758   1.377       .  D
C1759      H1764   1.088       .  S
C1759      C1760   1.357       .  D
C1760      C1934   1.474       .  S
C1765      C2430   1.383   1_545  A
C1765      C1766   1.415       .  A
C1765      N1771   1.349       .  A
C1766      C1767   1.413       .  A
C1766      H1777   1.082       .  S
C1767      C1776   1.396       .  A
C1767      C2428   1.383       .  A
C1768      C2427   1.383       .  A
C1768      C1769   1.400       .  A
C1768      N1774   1.336       .  A
C1769      C1770   1.397       .  A
C1769      H1778   1.083       .  S
C1770      C2425   1.384       .  A
C1770      C1773   1.377       .  A
N1771      C2432   1.361       .  A
N1771      H1781   1.044       .  S
C1772      C1773   1.392       .  A
C1772      N2431   1.359       .  A
C1773      H1779   1.082       .  S
N1774      C2435   1.356       .  A
N1774      H1782   1.045       .  S
C1775      C1776   1.404       .  A
C1775      N2434   1.355   1_545  A
C1776      H1780   1.082       .  S
C1783      C1788   1.385   1_565  A
C1783      C1784   1.406       .  A
C1783      N2449   1.345       .  A
C1784      C1785   1.404       .  A
C1784      H1795   1.082       .  S
C1785      C1794   1.381       .  A
C1785      C1786   1.384   1_565  A
C1786      C1787   1.401       .  A
C1786      N1792   1.340       .  A
C1787      C1788   1.400       .  A
C1787      H1796   1.083       .  S
C1788      C2451   1.376       .  A
N1789      C2443   1.346       .  A
N1789      C1790   1.357       .  A
N1789      H1799   1.045       .  S
C1790      C1791   1.391       .  A
C1791      C2448   1.372       .  A
C1791      H1797   1.083       .  S
N1792      C1793   1.355       .  A
N1792      H1800   1.045       .  S
C1793      C1794   1.391   1_545  A
C1794      H2458   1.077       .  S
H1798      C2454   1.076       .  S
C1801      C2466   1.382       .  A
C1801      C1802   1.403       .  A
C1801      N2467   1.340       .  A
C1802      C1803   1.400       .  A
C1802      H1813   1.083       .  S
C1803      C1812   1.379       .  A
C1803      C1804   1.384       .  A
C1804      C2465   1.406       .  A
C1804      N1810   1.343       .  A
C1805      C2464   1.406       .  A
C1805      C1806   1.405       .  A
C1805      H1814   1.082       .  S
C1806      C2461   1.381   1_545  A
C1806      C1809   1.380       .  A
N1807      C2461   1.343       .  A
N1807      C1808   1.362       .  A
N1807      H1817   1.043       .  S
C1808      C1809   1.402   1_565  A
C1809      H1815   1.082       .  S
N1810      C1811   1.356       .  A
N1810      H2478   1.044       .  S
C1811      C1812   1.394       .  A
C1812      H1816   1.082       .  S
H1818      N2470   1.044       .  S
C1819      C2484   1.382       .  A
C1819      C1820   1.407       .  A
C1819      N1825   1.347       .  A
C1820      C1821   1.406       .  A
C1820      H1831   1.083       .  S
C1821      C1830   1.381       .  A
C1821      C2482   1.384       .  A
C1822      C2481   1.384   1_545  A
C1822      C1823   1.406       .  A
C1822      N1828   1.346       .  A
C1823      C1824   1.406       .  A
C1823      H1832   1.083       .  S
C1824      C2479   1.383   1_545  A
C1824      C1827   1.380       .  A
N1825      C2486   1.359       .  A
N1825      H1835   1.044       .  S
C1826      C1827   1.392   1_565  A
C1826      N2485   1.355       .  A
C1827      H1833   1.073       .  S
N1828      C2489   1.357   1_545  A
N1828      H1836   1.044       .  S
C1829      C1830   1.397       .  A
C1829      N2488   1.357       .  A
C1830      H1834   1.082       .  S
C1837      C1838   1.409       .  A
C1837      N1843   1.350       .  A
C1838      C1839   1.410       .  A
C1838      H1849   1.082       .  S
C1839      C1848   1.386       .  A
C1840      C1841   1.401       .  A
C1840      N1846   1.342       .  A
C1841      C1842   1.399       .  A
C1841      H1850   1.083       .  S
C1842      C1845   1.374       .  A
N1843      H1853   1.044       .  S
C1844      C1845   1.393       .  A
C1845      H1851   1.082       .  S
N1846      C1847   1.354       .  A
N1846      H1854   1.045       .  S
C1848      H1852   1.082       .  S
C1855      C1856   1.401       .  A
C1855      N1861   1.344       .  A
C1856      C1857   1.402       .  A
C1856      H1867   1.083       .  S
C1857      C1866   1.372       .  A
C1858      C1859   1.409       .  A
C1858      N1864   1.352       .  A
C1859      C1860   1.410       .  A
C1859      H1868   1.082       .  S
C1860      C1863   1.384       .  A
N1861      H1871   1.045       .  S
C1862      C1863   1.399       .  A
C1863      H1869   1.082       .  S
N1864      C1865   1.359       .  A
N1864      H1872   1.044       .  S
C1866      H1870   1.082       .  S
C1873      C1874   1.401       .  A
C1873      N1879   1.344       .  A
C1874      C1875   1.401       .  A
C1874      H1885   1.083       .  S
C1875      C1884   1.371       .  A
C1876      C1877   1.412       .  A
C1876      N1882   1.354       .  A
C1877      C1878   1.413       .  A
C1877      H1886   1.082       .  S
C1878      C1881   1.387       .  A
N1879      H1889   1.045       .  S
C1880      C1881   1.401       .  A
C1881      H1887   1.082       .  S
N1882      C1883   1.361       .  A
N1882      H1890   1.044       .  S
C1884      H1888   1.083       .  S
C1891      C1896   1.384   1_455  A
C1892      H1903   1.082       .  S
C1893      C1894   1.385   1_455  A
C1894      C1895   1.398       .  A
C1894      N1900   1.340       .  A
C1895      C1896   1.398       .  A
C1895      H1904   1.083       .  S
C1896      C1899   1.371       .  A
N1897      H1907   1.044       .  S
C1898      C1899   1.391   1_455  A
C1899      H1905   1.082       .  S
N1900      C1901   1.353       .  A
N1900      H1908   1.045       .  S
C1902      H1906   1.082       .  S
C1909      C1914   1.383       .  A
C1909      C1910   1.398       .  A
C1909      N1915   1.333       .  A
C1910      C1911   1.394       .  A
C1910      H1921   1.083       .  S
C1911      C1920   1.374       .  A
C1911      C1912   1.384       .  A
C1912      C1913   1.413       .  A
C1912      N1918   1.347       .  A
C1913      C1914   1.410       .  A
C1913      H1922   1.082       .  S
C1914      C1917   1.393       .  A
N1915      C1916   1.354       .  A
N1915      H1925   1.045       .  S
C1916      C1917   1.402       .  A
C1917      H1923   1.082       .  S
N1918      C1919   1.360       .  A
N1918      H1926   1.044       .  S
C1919      C1920   1.391       .  A
C1920      H1924   1.083       .  S
C1927      C1932   1.384       .  A
C1927      C1928   1.407       .  A
C1927      N1933   1.347       .  A
C1928      C1929   1.407       .  A
C1928      H1939   1.083       .  S
C1929      C1938   1.381       .  A
C1929      C1930   1.385       .  A
C1930      C1931   1.397       .  A
C1930      N1936   1.340       .  A
C1931      C1932   1.397       .  A
C1931      H1940   1.083       .  S
C1932      C1935   1.368       .  A
N1933      C1934   1.355       .  A
N1933      H1943   1.041       .  S
C1934      C1935   1.393       .  A
C1935      H1941   1.083       .  S
N1936      C1937   1.352       .  A
N1936      H1944   1.045       .  S
C1937      C1938   1.398       .  A
C1938      H1942   1.082       .  S
C1945      C1950   1.384       .  A
C1945      C1946   1.401       .  A
C1945      N1951   1.343       .  A
C1946      C1947   1.401       .  A
C1946      H1957   1.082       .  S
C1947      C1956   1.374       .  A
C1947      C1948   1.382       .  A
C1948      C1949   1.408       .  A
C1948      N1954   1.346       .  A
C1949      C1950   1.407       .  A
C1949      H1958   1.082       .  S
C1950      C1953   1.383       .  A
N1951      C1952   1.354       .  A
N1951      H1961   1.045       .  S
C1952      C1953   1.398       .  A
C1953      H1959   1.082       .  S
N1954      C1955   1.359       .  A
N1954      H1962   1.045       .  S
C1955      C1956   1.402       .  A
C1956      H1960   1.080       .  S
C1963      C1968   1.384       .  A
C1963      C1964   1.406       .  A
C1963      N1969   1.347       .  A
C1964      C1965   1.405       .  A
C1964      H1975   1.083       .  S
C1965      C1974   1.379       .  A
C1965      C1966   1.384       .  A
C1966      C1967   1.403       .  A
C1966      N1972   1.347       .  A
C1967      C1968   1.404       .  A
C1967      H1976   1.082       .  S
C1968      C1971   1.374       .  A
N1969      C1970   1.356       .  A
N1969      H1979   1.044       .  S
C1970      C1971   1.396       .  A
C1971      H1977   1.083       .  S
N1972      C1973   1.356       .  A
N1972      H1980   1.045       .  S
C1973      C1974   1.397       .  A
C1974      H1978   1.082       .  S
O1981     Cu1989   2.018   1_554  S
O1981      C1991   1.280       .  A
O1982     Cu2319   2.001       .  S
O1982      C1992   1.277       .  A
O1983     Cu1989   2.000   1_554  S
O1983      C1993   1.276       .  A
O1984     Cu2319   2.002       .  S
O1984      C1994   1.276       .  A
O1985     Cu1990   2.016       .  S
O1985      C1994   1.279       .  A
O1986     Cu2320   2.024   1_554  S
O1986      C1993   1.279       .  A
O1987     Cu1990   2.008       .  S
O1987      C1992   1.277       .  A
O1988     Cu2320   2.020   1_554  S
O1988      C1991   1.277       .  A
Cu1989     O2312   2.022       .  S
Cu1989     O2314   2.002       .  S
Cu1989    Cu2320   2.374       .  S
Cu1990     O2316   2.033       .  S
Cu1990     O2318   2.007       .  S
Cu1990    Cu2319   2.375       .  S
C1991      C2249   1.477       .  S
C1992      C2282   1.465       .  S
C1993      C2303   1.472       .  S
C1994      C2267   1.471       .  S
O1995     Cu2333   2.030       .  S
O1996     Cu2003   2.007       .  S
O1997     Cu2333   2.018       .  S
O1998     Cu2003   2.020       .  S
O1999     Cu2004   2.019       .  S
O1999      C2008   1.279       .  A
O2000     Cu2334   2.027       .  S
O2000      C2007   1.279       .  A
O2001     Cu2004   2.011       .  S
O2001      C2006   1.278       .  A
O2002     Cu2334   2.028       .  S
O2002      C2005   1.279       .  A
Cu2003     O2325   2.004   1_554  S
Cu2003     O2327   2.015   1_554  S
Cu2004     O2330   2.022   1_554  S
Cu2004     O2332   2.019   1_554  S
C2005      C2192   1.479       .  S
C2006      C2231   1.476       .  S
C2007      C2210   1.477       .  S
C2008      C2177   1.480       .  S
O2009     Cu2347   2.017   1_554  S
O2010     Cu2017   2.018       .  S
O2011     Cu2347   2.030   1_554  S
O2012     Cu2017   1.999       .  S
O2013     Cu2348   2.008       .  S
O2013      C2022   1.277   1_565  A
O2014     Cu2018   2.015   1_554  S
O2014      C2021   1.278   1_565  A
O2015     Cu2348   2.007       .  S
O2015      C2020   1.277       .  A
O2016     Cu2018   2.020   1_554  S
O2016      C2019   1.279   1_565  A
Cu2017     O2339   2.016       .  S
Cu2017     O2341   2.027       .  S
Cu2018     O2343   2.015       .  S
Cu2018     O2345   2.023       .  S
C2019      C2102   1.477       .  S
C2020      C2141   1.465       .  S
C2021      C2159   1.479       .  S
C2022      C2120   1.467       .  S
C2023      C2029   1.537       .  S
C2023      C2027   1.522       .  S
C2023      C2195   1.519       .  S
C2024      H2031   1.085       .  S
C2024      C2025   1.371       .  D
C2025      C2064   1.505       .  S
C2026      C2030   1.538       .  S
C2026      C2028   1.563       .  S
C2026      H2032   1.111   1_655  S
C2027      H2033   1.079       .  S
C2027      C2028   1.373       .  D
C2028      C2088   1.489       .  S
C2029      H2034   1.087       .  S
C2029      C2030   1.363       .  D
C2030      C2174   1.480       .  S
C2035      C2036   1.523       .  S
C2035      C2041   1.536       .  S
C2035      C2213   1.517       .  S
C2036      H2043   1.080       .  S
C2036      C2037   1.375       .  D
C2037      C2038   1.564   1_655  S
C2037      C2073   1.486       .  S
C2038      C2042   1.538       .  S
C2038      H2044   1.110       .  S
C2039      H2045   1.087       .  S
C2039      C2040   1.375       .  D
C2040      C2049   1.515       .  S
C2041      H2046   1.087       .  S
C2041      C2042   1.359   1_655  D
C2042      C2228   1.474       .  S
C2047      C2048   1.511       .  S
C2047      C2053   1.512       .  S
C2047      C2051   1.528       .  S
C2047      C2285   1.513       .  S
C2048      H2055   1.082       .  S
C2048      C2049   1.371       .  D
C2049      C2050   1.571       .  S
C2050      C2054   1.563       .  S
C2050      C2052   1.554       .  S
C2050      H2056   1.109       .  S
C2051      H2057   1.082       .  S
C2051      C2052   1.375       .  D
C2052      C2061   1.519       .  S
C2053      H2058   1.087       .  S
C2053      C2054   1.364       .  D
C2054      C2300   1.471       .  S
C2059      C2060   1.523       .  S
C2059      C2065   1.518       .  S
C2059      C2138   1.533       .  S
C2060      H2067   1.079       .  S
C2060      C2061   1.376       .  D
C2061      C2062   1.565       .  S
C2062      C2066   1.561       .  S
C2062      H2068   1.109       .  S
C2063      H2069   1.079       .  S
C2063      C2064   1.364       .  D
C2065      H2070   1.087       .  S
C2065      C2066   1.367       .  D
C2066      C2156   1.477       .  S
C2071      C2072   1.534       .  S
C2071      C2077   1.529       .  S
C2071      C2105   1.514       .  S
C2072      H2079   1.081       .  S
C2072      C2073   1.376       .  D
C2073      C2074   1.557       .  S
C2074      C2078   1.538       .  S
C2074      H2080   1.110       .  S
C2075      H2081   1.080       .  S
C2075      C2076   1.372       .  D
C2076      C2085   1.509       .  S
C2077      H2082   1.087       .  S
C2077      C2078   1.358       .  D
C2078      C2123   1.468       .  S
C2083      C2084   1.517       .  S
C2083      C2089   1.527       .  S
C2083      C2087   1.538       .  S
C2083      C2246   1.514       .  S
C2084      H2091   1.080       .  S
C2084      C2085   1.368       .  D
C2085      C2086   1.556       .  S
C2086      C2090   1.544       .  S
C2086      C2088   1.555       .  S
C2086      H2092   1.109       .  S
C2087      H2093   1.084       .  S
C2087      C2088   1.378       .  D
C2089      H2094   1.087       .  S
C2089      C2090   1.358       .  D
C2090      C2264   1.475       .  S
C2095      C2096   1.414       .  A
C2095      N2101   1.349       .  A
C2096      C2097   1.412       .  A
C2096      H2107   1.082       .  S
C2097      C2106   1.394       .  A
C2098      C2099   1.401   1_545  A
C2098      N2104   1.336   1_545  A
C2099      C2100   1.398       .  A
C2099      H2108   1.083       .  S
C2100      C2103   1.377       .  A
N2101      H2111   1.044       .  S
C2102      C2103   1.393   1_545  A
C2103      H2109   1.082       .  S
N2104      H2112   1.045       .  S
C2105      C2106   1.404       .  A
C2106      H2110   1.082       .  S
C2113      C2118   1.385       .  A
C2113      C2114   1.407       .  A
C2114      C2115   1.407       .  A
C2114      H2125   1.083       .  S
C2115      C2124   1.382       .  A
C2115      C2116   1.385       .  A
C2116      C2117   1.398       .  A
C2116      N2122   1.339       .  A
C2117      C2118   1.397       .  A
C2117      H2126   1.083       .  S
N2119      C2120   1.355   1_565  A
N2119      H2129   1.044       .  S
C2120      C2121   1.394       .  A
C2121      H2127   1.083       .  S
N2122      C2123   1.353       .  A
N2122      H2130   1.045       .  S
C2123      C2124   1.392       .  A
C2131      C2132   1.403       .  A
C2132      C2133   1.399       .  A
C2132      H2143   1.083       .  S
C2133      C2142   1.378       .  A
C2133      C2134   1.384   1_565  A
C2134      N2140   1.341       .  A
C2135      C2136   1.409       .  A
C2135      H2144   1.082       .  S
C2136      C2139   1.384       .  A
N2137      C2138   1.361       .  A
N2137      H2147   1.042       .  S
C2138      C2139   1.405       .  A
C2139      H2145   1.082       .  S
N2140      C2141   1.355   1_545  A
C2141      C2142   1.393       .  A
C2142      H2146   1.083       .  S
C2149      C2150   1.406       .  A
C2149      N2155   1.344       .  A
C2150      C2151   1.404       .  A
C2150      H2161   1.083       .  S
C2151      C2160   1.381       .  A
C2152      C2153   1.408       .  A
C2152      N2158   1.348       .  A
C2153      C2154   1.408       .  A
C2153      H2162   1.083       .  S
C2154      C2157   1.383       .  A
N2155      H2165   1.045       .  S
C2156      C2157   1.394       .  A
C2157      H2163   1.075       .  S
N2158      H2166   1.044       .  S
C2159      C2160   1.397   1_545  A
C2160      H2164   1.082       .  S
C2167      C2168   1.407       .  A
C2167      N2173   1.348       .  A
C2168      C2169   1.407       .  A
C2168      H2179   1.082       .  S
C2169      C2178   1.382       .  A
C2170      C2171   1.403       .  A
C2170      N2176   1.343       .  A
C2171      C2172   1.402       .  A
C2171      H2180   1.082       .  S
C2172      C2175   1.378       .  A
N2173      H2183   1.044       .  S
C2174      C2175   1.394       .  A
C2175      H2181   1.082       .  S
N2176      C2177   1.355       .  A
N2176      H2184   1.045       .  S
C2178      H2182   1.082       .  S
C2185      C2186   1.403       .  A
C2185      N2191   1.346       .  A
C2186      C2187   1.404       .  A
C2186      H2197   1.083       .  S
C2187      C2196   1.374       .  A
C2188      C2189   1.412       .  A
C2188      N2194   1.351       .  A
C2189      C2190   1.412       .  A
C2189      H2198   1.082       .  S
C2190      C2193   1.388       .  A
N2191      H2201   1.045       .  S
C2192      C2193   1.402       .  A
C2193      H2199   1.082       .  S
N2194      C2195   1.361       .  A
N2194      H2202   1.044       .  S
C2196      H2200   1.081       .  S
C2203      C2204   1.402       .  A
C2203      N2209   1.344       .  A
C2204      C2205   1.403       .  A
C2204      H2215   1.083       .  S
C2205      C2214   1.374       .  A
C2206      C2207   1.410       .  A
C2206      N2212   1.353       .  A
C2207      C2208   1.411       .  A
C2207      H2216   1.082       .  S
C2208      C2211   1.385       .  A
N2209      H2219   1.045       .  S
C2210      C2211   1.399       .  A
C2211      H2217   1.082       .  S
N2212      C2213   1.360       .  A
N2212      H2220   1.044       .  S
C2214      H2218   1.082       .  S
C2221      C2226   1.384   1_455  A
C2222      H2233   1.082       .  S
C2223      C2224   1.384   1_455  A
C2224      C2225   1.401       .  A
C2224      N2230   1.342       .  A
C2225      C2226   1.400       .  A
C2225      H2234   1.083       .  S
C2226      C2229   1.373       .  A
N2227      H2237   1.045       .  S
C2228      C2229   1.393   1_455  A
C2229      H2235   1.082       .  S
N2230      C2231   1.355       .  A
N2230      H2238   1.045       .  S
C2232      H2236   1.082       .  S
C2239      C2244   1.383       .  A
C2239      C2240   1.398       .  A
C2239      N2245   1.334       .  A
C2240      C2241   1.394       .  A
C2240      H2251   1.083       .  S
C2241      C2250   1.373       .  A
C2241      C2242   1.383       .  A
C2242      C2243   1.415       .  A
C2242      N2248   1.350       .  A
C2243      C2244   1.413       .  A
C2243      H2252   1.082       .  S
C2244      C2247   1.395       .  A
N2245      C2246   1.354       .  A
N2245      H2255   1.045       .  S
C2246      C2247   1.403       .  A
C2247      H2253   1.082       .  S
N2248      C2249   1.361       .  A
N2248      H2256   1.044       .  S
C2249      C2250   1.391       .  A
C2250      H2254   1.083       .  S
C2257      C2262   1.384       .  A
C2257      C2258   1.406       .  A
C2257      N2263   1.348       .  A
C2258      C2259   1.406       .  A
C2258      H2269   1.083       .  S
C2259      C2268   1.379       .  A
C2259      C2260   1.385       .  A
C2260      C2261   1.399       .  A
C2260      N2266   1.343       .  A
C2261      C2262   1.400       .  A
C2261      H2270   1.083       .  S
C2262      C2265   1.371       .  A
N2263      C2264   1.355       .  A
N2263      H2273   1.040       .  S
C2264      C2265   1.393       .  A
C2265      H2271   1.082       .  S
N2266      C2267   1.354       .  A
N2266      H2274   1.045       .  S
C2267      C2268   1.397       .  A
C2268      H2272   1.082       .  S
C2275      C2280   1.385       .  A
C2275      C2276   1.399       .  A
C2275      N2281   1.340       .  A
C2276      C2277   1.399       .  A
C2276      H2287   1.083       .  S
C2277      C2286   1.373       .  A
C2277      C2278   1.382       .  A
C2278      C2279   1.405       .  A
C2278      N2284   1.342       .  A
C2279      C2280   1.404       .  A
C2279      H2288   1.082       .  S
C2280      C2283   1.379       .  A
N2281      C2282   1.353       .  A
N2281      H2291   1.045       .  S
C2282      C2283   1.396       .  A
C2283      H2289   1.082       .  S
N2284      C2285   1.358       .  A
N2284      H2292   1.045       .  S
C2285      C2286   1.400       .  A
C2286      H2290   1.080       .  S
C2293      C2298   1.384       .  A
C2293      C2294   1.403       .  A
C2293      N2299   1.346       .  A
C2294      C2295   1.403       .  A
C2294      H2305   1.082       .  S
C2295      C2304   1.376       .  A
C2295      C2296   1.384       .  A
C2296      C2297   1.403       .  A
C2296      N2302   1.346       .  A
C2297      C2298   1.405       .  A
C2297      H2306   1.083       .  S
C2298      C2301   1.375       .  A
N2299      C2300   1.355       .  A
N2299      H2309   1.045       .  S
C2300      C2301   1.397       .  A
C2301      H2307   1.083       .  S
N2302      C2303   1.356       .  A
N2302      H2310   1.045       .  S
C2303      C2304   1.395       .  A
C2304      H2308   1.082       .  S
O2311     Cu2319   2.006       .  S
O2311      C2321   1.279       .  A
O2312      C2322   1.278       .  A
O2313     Cu2319   1.999       .  S
O2313      C2323   1.275       .  A
O2314      C2324   1.276       .  A
O2315     Cu2320   2.006       .  S
O2315      C2324   1.278       .  A
O2316      C2323   1.281       .  A
O2317     Cu2320   2.023       .  S
O2317      C2322   1.280       .  A
O2318      C2321   1.275       .  A
C2321      C2579   1.467       .  S
C2322      C2612   1.480       .  S
C2323      C2633   1.474       .  S
C2324      C2597   1.467       .  S
O2326     Cu2333   2.029       .  S
O2328     Cu2333   2.018       .  S
O2329     Cu2334   2.022       .  S
O2329      C2338   1.280       .  A
O2330      C2337   1.278       .  A
O2331     Cu2334   2.011       .  S
O2331      C2336   1.278       .  A
O2332      C2335   1.278       .  A
C2335      C2522   1.477       .  S
C2336      C2561   1.475       .  S
C2337      C2540   1.484       .  S
C2338      C2507   1.475       .  S
O2340     Cu2347   2.007       .  S
O2342     Cu2347   2.000       .  S
O2343      C2352   1.278   1_565  A
O2344     Cu2348   2.010       .  S
O2344      C2351   1.278   1_565  A
O2345      C2350   1.279   1_565  A
O2346     Cu2348   2.007       .  S
O2346      C2349   1.279   1_565  A
C2349      C2432   1.473       .  S
C2350      C2471   1.477   1_545  S
C2351      C2489   1.476   1_545  S
C2352      C2450   1.470       .  S
C2353      C2359   1.538       .  S
C2353      C2357   1.521       .  S
C2353      C2525   1.521       .  S
C2354      H2361   1.086       .  S
C2354      C2355   1.367       .  D
C2355      C2394   1.504       .  S
C2356      C2360   1.536       .  S
C2356      C2358   1.564       .  S
C2356      H2362   1.111       .  S
C2357      H2363   1.081       .  S
C2357      C2358   1.373       .  D
C2358      C2418   1.485       .  S
C2359      H2364   1.087       .  S
C2359      C2360   1.362       .  D
C2360      C2504   1.476       .  S
C2365      C2366   1.523       .  S
C2365      C2371   1.537       .  S
C2365      C2543   1.523       .  S
C2366      H2373   1.082       .  S
C2366      C2367   1.375       .  D
C2367      C2368   1.563       .  S
C2367      C2403   1.485       .  S
C2368      C2372   1.534       .  S
C2368      H2374   1.111   1_655  S
C2369      H2375   1.082       .  S
C2369      C2370   1.370       .  D
C2370      C2379   1.513       .  S
C2371      H2376   1.087       .  S
C2371      C2372   1.362       .  D
C2372      C2558   1.473       .  S
C2377      C2378   1.511       .  S
C2377      C2383   1.515       .  S
C2377      C2381   1.531       .  S
C2377      C2615   1.526       .  S
C2378      H2385   1.082       .  S
C2378      C2379   1.374       .  D
C2379      C2380   1.567       .  S
C2380      C2384   1.559       .  S
C2380      C2382   1.562       .  S
C2380      H2386   1.109       .  S
C2381      H2387   1.080       .  S
C2381      C2382   1.380       .  D
C2382      C2391   1.530       .  S
C2383      H2388   1.087       .  S
C2383      C2384   1.365       .  D
C2384      C2630   1.473       .  S
C2389      C2390   1.527       .  S
C2389      C2395   1.516       .  S
C2389      C2468   1.526       .  S
C2390      H2397   1.079       .  S
C2390      C2391   1.376       .  D
C2391      C2392   1.569       .  S
C2392      C2396   1.565       .  S
C2392      H2398   1.109       .  S
C2393      H2399   1.080       .  S
C2393      C2394   1.371       .  D
C2395      H2400   1.087       .  S
C2395      C2396   1.366       .  D
C2396      C2486   1.477       .  S
C2401      C2402   1.538       .  S
C2401      C2407   1.527       .  S
C2401      C2435   1.515       .  S
C2402      H2409   1.084       .  S
C2402      C2403   1.376       .  D
C2403      C2404   1.554       .  S
C2404      C2408   1.541       .  S
C2404      H2410   1.110       .  S
C2405      H2411   1.079       .  S
C2405      C2406   1.369       .  D
C2406      C2415   1.509       .  S
C2407      H2412   1.087       .  S
C2407      C2408   1.359       .  D
C2408      C2453   1.471       .  S
C2413      C2414   1.516       .  S
C2413      C2419   1.526       .  S
C2413      C2417   1.534       .  S
C2413      C2576   1.507       .  S
C2414      H2421   1.080       .  S
C2414      C2415   1.371       .  D
C2415      C2416   1.554       .  S
C2416      C2420   1.544       .  S
C2416      C2418   1.556       .  S
C2416      H2422   1.109       .  S
C2417      H2423   1.084       .  S
C2417      C2418   1.375       .  D
C2419      H2424   1.088       .  S
C2419      C2420   1.355       .  D
C2420      C2594   1.471       .  S
C2425      C2426   1.412       .  A
C2425      N2431   1.347       .  A
C2426      C2427   1.410       .  A
C2426      H2437   1.082       .  S
C2427      C2436   1.392       .  A
C2428      C2429   1.397   1_545  A
C2428      N2434   1.333   1_545  A
C2429      C2430   1.393       .  A
C2429      H2438   1.083       .  S
C2430      C2433   1.372       .  A
N2431      H2441   1.044       .  S
C2432      C2433   1.390   1_545  A
C2433      H2439   1.083       .  S
N2434      H2442   1.045       .  S
C2435      C2436   1.402       .  A
C2436      H2440   1.082       .  S
C2443      C2448   1.385       .  A
C2443      C2444   1.407       .  A
C2444      C2445   1.406       .  A
C2444      H2455   1.083       .  S
C2445      C2454   1.382       .  A
C2445      C2446   1.385       .  A
C2446      C2447   1.399       .  A
C2446      N2452   1.339       .  A
C2447      C2448   1.398       .  A
C2447      H2456   1.083       .  S
N2449      C2450   1.356   1_565  A
N2449      H2459   1.044       .  S
C2450      C2451   1.394       .  A
C2451      H2457   1.083       .  S
N2452      C2453   1.353       .  A
N2452      H2460   1.045       .  S
C2453      C2454   1.391       .  A
C2461      C2462   1.406       .  A
C2462      C2463   1.404       .  A
C2462      H2473   1.082       .  S
C2463      C2472   1.382       .  A
C2463      C2464   1.384   1_565  A
C2464      N2470   1.345       .  A
C2465      C2466   1.404       .  A
C2465      H2474   1.082       .  S
C2466      C2469   1.381       .  A
N2467      C2468   1.361       .  A
N2467      H2477   1.041       .  S
C2468      C2469   1.401       .  A
C2469      H2475   1.082       .  S
N2470      C2471   1.357   1_545  A
C2471      C2472   1.396       .  A
C2472      H2476   1.082       .  S
C2479      C2480   1.403       .  A
C2479      N2485   1.342       .  A
C2480      C2481   1.401       .  A
C2480      H2491   1.083       .  S
C2481      C2490   1.378       .  A
C2482      C2483   1.405       .  A
C2482      N2488   1.347       .  A
C2483      C2484   1.406       .  A
C2483      H2492   1.083       .  S
C2484      C2487   1.378       .  A
N2485      H2495   1.042       .  S
C2486      C2487   1.394       .  A
C2487      H2493   1.074       .  S
N2488      H2496   1.044       .  S
C2489      C2490   1.395       .  A
C2490      H2494   1.082       .  S
C2497      C2498   1.408       .  A
C2497      N2503   1.348       .  A
C2498      C2499   1.408       .  A
C2498      H2509   1.083       .  S
C2499      C2508   1.384       .  A
C2500      C2501   1.402       .  A
C2500      N2506   1.344       .  A
C2501      C2502   1.402       .  A
C2501      H2510   1.082       .  S
C2502      C2505   1.376       .  A
N2503      H2513   1.041       .  S
C2504      C2505   1.393       .  A
C2505      H2511   1.083       .  S
N2506      C2507   1.355       .  A
N2506      H2514   1.045       .  S
C2508      H2512   1.082       .  S
C2515      C2516   1.397       .  A
C2515      N2521   1.339       .  A
C2516      C2517   1.396       .  A
C2516      H2527   1.083       .  S
C2517      C2526   1.367       .  A
C2518      C2519   1.411       .  A
C2518      N2524   1.352       .  A
C2519      C2520   1.412       .  A
C2519      H2528   1.082       .  S
C2520      C2523   1.386       .  A
N2521      H2531   1.045       .  S
C2522      C2523   1.400       .  A
C2523      H2529   1.082       .  S
N2524      C2525   1.362       .  A
N2524      H2532   1.045       .  S
C2526      H2530   1.083       .  S
C2533      C2534   1.401       .  A
C2533      N2539   1.343       .  A
C2534      C2535   1.401       .  A
C2534      H2545   1.083       .  S
C2535      C2544   1.372       .  A
C2536      C2537   1.412       .  A
C2536      N2542   1.355       .  A
C2537      C2538   1.414       .  A
C2537      H2546   1.082       .  S
C2538      C2541   1.386       .  A
N2539      H2549   1.045       .  S
C2540      C2541   1.402       .  A
C2541      H2547   1.082       .  S
N2542      C2543   1.362       .  A
N2542      H2550   1.044       .  S
C2544      H2548   1.080       .  S
C2551      C2556   1.385   1_455  A
C2552      H2563   1.082       .  S
C2553      C2554   1.385   1_455  A
C2554      C2555   1.400       .  A
C2554      N2560   1.342       .  A
C2555      C2556   1.399       .  A
C2555      H2564   1.083       .  S
C2556      C2559   1.373       .  A
N2557      H2567   1.044       .  S
C2558      C2559   1.392       .  A
C2559      H2565   1.083       .  S
N2560      C2561   1.354       .  A
N2560      H2568   1.045       .  S
C2562      H2566   1.082       .  S
C2569      C2574   1.384       .  A
C2569      C2570   1.395       .  A
C2569      N2575   1.331       .  A
C2570      C2571   1.391       .  A
C2570      H2581   1.083       .  S
C2571      C2580   1.370       .  A
C2571      C2572   1.384       .  A
C2572      C2573   1.412       .  A
C2572      N2578   1.347       .  A
C2573      C2574   1.410       .  A
C2573      H2582   1.082       .  S
C2574      C2577   1.392       .  A
N2575      C2576   1.353       .  A
N2575      H2585   1.045       .  S
C2576      C2577   1.401       .  A
C2577      H2583   1.082       .  S
N2578      C2579   1.360       .  A
N2578      H2586   1.044       .  S
C2579      C2580   1.388       .  A
C2580      H2584   1.083       .  S
C2587      C2592   1.384       .  A
C2587      C2588   1.405       .  A
C2587      N2593   1.346       .  A
C2588      C2589   1.405       .  A
C2588      H2599   1.083       .  S
C2589      C2598   1.379       .  A
C2589      C2590   1.385       .  A
C2590      C2591   1.399       .  A
C2590      N2596   1.341       .  A
C2591      C2592   1.398       .  A
C2591      H2600   1.083       .  S
C2592      C2595   1.371       .  A
N2593      C2594   1.355       .  A
N2593      H2603   1.042       .  S
C2594      C2595   1.392       .  A
C2595      H2601   1.083       .  S
N2596      C2597   1.353       .  A
N2596      H2604   1.045       .  S
C2597      C2598   1.397       .  A
C2598      H2602   1.082       .  S
C2605      C2610   1.384       .  A
C2605      C2606   1.407       .  A
C2605      N2611   1.348       .  A
C2606      C2607   1.407       .  A
C2606      H2617   1.082       .  S
C2607      C2616   1.380       .  A
C2607      C2608   1.382       .  A
C2608      C2609   1.404       .  A
C2608      N2614   1.345       .  A
C2609      C2610   1.404       .  A
C2609      H2618   1.082       .  S
C2610      C2613   1.379       .  A
N2611      C2612   1.358       .  A
N2611      H2621   1.044       .  S
C2612      C2613   1.396       .  A
C2613      H2619   1.082       .  S
N2614      C2615   1.358       .  A
N2614      H2622   1.045       .  S
C2615      C2616   1.405       .  A
C2616      H2620   1.080       .  S
C2623      C2628   1.383       .  A
C2623      C2624   1.408       .  A
C2623      N2629   1.349       .  A
C2624      C2625   1.409       .  A
C2624      H2635   1.083       .  S
C2625      C2634   1.381       .  A
C2625      C2626   1.385       .  A
C2626      C2627   1.400       .  A
C2626      N2632   1.344       .  A
C2627      C2628   1.400       .  A
C2627      H2636   1.082       .  S
C2628      C2631   1.371       .  A
N2629      C2630   1.358       .  A
N2629      H2639   1.045       .  S
C2630      C2631   1.392       .  A
C2631      H2637   1.082       .  S
N2632      C2633   1.353       .  A
N2632      H2640   1.045       .  S
C2633      C2634   1.399       .  A
C2634      H2638   1.082       .  S
