geometry optimzed in LAMMPS
_audit_creation_date              2020-11-30 
_audit_creation_method            'lammps2cif' 
_symmetry_space_group_name_H-M    'P1' 
_symmetry_Int_Tables_number       1 
_symmetry_cell_setting            triclinic 
loop_ 
_symmetry_equiv_pos_as_xyz 
  x,y,z 
_cell_length_a                    33.48730493 
_cell_length_b                    45.078834305697924 
_cell_length_c                    50.68367122812308 
_cell_angle_alpha                 90.05854490027495 
_cell_angle_beta                  90.00697291584089 
_cell_angle_gamma                 89.85237683698406 
loop_ 
_atom_site_label 
_atom_site_type_symbol 
_atom_site_fract_x 
_atom_site_fract_y 
_atom_site_fract_z 
_atom_site_charge 
C1          C  0.73073417  0.13785537  0.35122429     0.01900
C2          C  0.73271986  0.10659344  0.35010782     0.01900
C3          C  0.76189743  0.09150021  0.36449212    -0.18600
C4          C  0.78990707  0.10721485  0.37934761     0.01900
C5          C  0.78876067  0.13857671  0.37977381     0.01900
C6          C  0.75864845  0.15360030  0.36612742    -0.18600
H7          H  0.75767327  0.17763883  0.36644745     0.03900
H8          H  0.76333803  0.06749229  0.36365779     0.03900
Zr9        Zr  0.53414272  0.29329870  0.19273475     2.17500
O10         O  0.55087263  0.30144464  0.14656485    -0.51700
O11         O  0.52985624  0.34527659  0.20507462    -0.74900
O12         O  0.47353135  0.30796584  0.16967109    -0.81700
O13         O  0.64523928  0.28228592  0.20558830    -0.83400
O14         O  0.42153655  0.28387051  0.18849738    -0.79000
O15         O  0.60125544  0.30814028  0.18035252    -0.90700
O16         O  0.52099453  0.34640126  0.24952282    -0.76600
O17         O  0.48500768  0.29509917  0.22669611    -0.86100
O18         O  0.56973373  0.29505623  0.23333146    -0.85800
O19         O  0.49507972  0.24905997  0.18695266    -0.72600
O20         O  0.57353110  0.24887071  0.19360904    -0.84700
Zr21       Zr  0.52095827  0.20745202  0.26412181     2.26400
Zr22       Zr  0.44713054  0.25049850  0.22209173     2.06300
Zr23       Zr  0.60791241  0.25041024  0.23478475     2.10000
Zr24       Zr  0.52084808  0.29625242  0.26710071     1.78800
O25         O  0.66206809  0.22320545  0.21368141    -0.93500
O26         O  0.46055612  0.31878677  0.28514113    -0.41300
O27         O  0.55997045  0.25170120  0.26961515    -0.78000
O28         O  0.48163170  0.25209720  0.26333595    -0.96600
O29         O  0.48544984  0.20583000  0.22345885    -0.90000
O30         O  0.56988893  0.20611771  0.23002360    -0.92800
C31         C  0.52492617  0.35907344  0.22698835     1.01000
C32         C  0.63684742  0.30128968  0.18764723     1.13900
C33         C  0.43615584  0.30203825  0.17154927     1.04700
O34         O  0.39220661  0.27733452  0.24276125    -0.94900
O35         O  0.40994744  0.21827346  0.25164655    -0.90700
O36         O  0.45381925  0.19179581  0.27638344    -0.83800
C37         C  0.41809957  0.19909127  0.26963794     1.11300
O38         O  0.54836142  0.21045481  0.14257615    -0.96900
Zr39       Zr  0.53442592  0.20470974  0.18954743     1.88900
O40         O  0.52273250  0.15542398  0.25117807    -0.73600
O41         O  0.40336183  0.22097360  0.19418529    -0.52800
O42         O  0.47954106  0.18450531  0.16361294    -0.97500
O43         O  0.59423491  0.17907891  0.17398875    -0.54700
O44         O  0.52911087  0.15451595  0.20649219    -0.74100
C45         C  0.52564648  0.14173756  0.22900250     0.98300
O46         O  0.51237257  0.20317459  0.31178777    -0.62900
O47         O  0.65118275  0.27774153  0.26477628    -0.57700
O48         O  0.58216357  0.19056848  0.28514695    -0.94400
O49         O  0.63364181  0.21711324  0.26785123    -0.92800
O50         O  0.57539936  0.32059040  0.29034751    -0.93200
O51         O  0.51466323  0.29089159  0.31474996    -0.92000
C52         C  0.61923897  0.19746539  0.28336594     1.17100
H53         H  0.58677005  0.31227080  0.23429258     0.33000
H54         H  0.46270945  0.25194498  0.27766697     0.43900
H55         H  0.58690834  0.18891752  0.23159263     0.37400
H56         H  0.48184383  0.24938331  0.17006282     0.33900
H57         H  0.46936804  0.33820508  0.29216836     0.25700
H58         H  0.37744563  0.23159114  0.19456087     0.31600
H59         H  0.48617266  0.16324487  0.16128263     0.37500
H60         H  0.56481618  0.34043381  0.29506082     0.32000
H61         H  0.67855256  0.27105181  0.26033721     0.30900
H62         H  0.68671507  0.23161169  0.22143337     0.32600
H63         H  0.60151242  0.16496082  0.18814971     0.31500
H64         H  0.53311509  0.27448726  0.31933200     0.35500
H65         H  0.53795916  0.20933721  0.31985159     0.28300
H66         H  0.54160860  0.32179753  0.14252620     0.32500
H67         H  0.54475915  0.19053455  0.13467868     0.35300
H68         H  0.64995736  0.29857470  0.25870230     0.27900
H69         H  0.49405452  0.21970231  0.31624191     0.40800
H70         H  0.39693841  0.29842848  0.23838196     0.30900
H71         H  0.44420817  0.32386182  0.26950864     0.38500
H72         H  0.61547139  0.19430482  0.17453473     0.30300
H73         H  0.41349184  0.22394486  0.17603440     0.30400
H74         H  0.53303376  0.28808728  0.13653033     0.30700
Zr75       Zr  0.52857016  0.45711566  0.19060742     2.17500
O76         O  0.52782358  0.44641792  0.14351943    -0.51700
O77         O  0.52730207  0.40528249  0.20449313    -0.74900
O78         O  0.59559315  0.44245646  0.17711211    -0.81700
O79         O  0.41604705  0.46885583  0.18634368    -0.83400
O80         O  0.63967603  0.46644031  0.20361162    -0.79000
O81         O  0.46778184  0.44377371  0.16751372    -0.90700
O82         O  0.51941341  0.40466517  0.24902073    -0.76600
O83         O  0.56354332  0.45523279  0.23143761    -0.86100
O84         O  0.47916943  0.45639520  0.22424918    -0.85800
O85         O  0.56718840  0.00065910  0.19243859    -0.72600
O86         O  0.48910795  0.00238567  0.18690719    -0.84700
Zr87       Zr  0.51688414  0.04348328  0.26372163     2.26400
Zr88       Zr  0.60143635  0.99823388  0.23390912     2.06300
Zr89       Zr  0.44111628  0.00222241  0.22172690     2.10000
Zr90       Zr  0.51384928  0.45507847  0.26493760     1.78800
O91         O  0.39799492  0.03191270  0.19344538    -0.93500
O92         O  0.56474169  0.43241562  0.29277395    -0.41300
O93         O  0.47615876  0.50002493  0.26113440    -0.78000
O94         O  0.55455518  0.49855425  0.26742311    -0.96600
O95         O  0.56557514  0.04373678  0.22958810    -0.90000
O96         O  0.48128511  0.04567485  0.22314755    -0.92800
C97         C  0.52380811  0.39173574  0.22667819     1.01000
C98         C  0.43061763  0.45022856  0.16984120     1.13900
C99         C  0.63126748  0.44853650  0.18470127     1.04700
O100        O  0.64920926  0.47088974  0.25961728    -0.94900
O101        O  0.62848179  0.02957633  0.26824521    -0.90700
O102        O  0.57887127  0.05866731  0.28457424    -0.83800
C103        C  0.61536510  0.04989375  0.28377192     1.11300
O104        O  0.53759585  0.04105131  0.14153296    -0.96900
Zr105      Zr  0.52992610  0.04593001  0.18920614     1.88900
O106        O  0.52039894  0.09544975  0.25099316    -0.73600
O107        O  0.65650202  0.02680636  0.21564827    -0.52800
O108        O  0.59348951  0.06695645  0.17531418    -0.97500
O109        O  0.47739879  0.07105403  0.16436578    -0.54700
O110        O  0.52901530  0.09620807  0.20647157    -0.74100
C111        C  0.52501734  0.10906178  0.22894678     0.98300
O112        O  0.51211095  0.04779065  0.31161584    -0.62900
O113        O  0.38937301  0.47500406  0.24209263    -0.57700
O114        O  0.45053949  0.06081349  0.27577221    -0.94400
O115        O  0.40573451  0.03567459  0.25049493    -0.92800
O116        O  0.45118431  0.43134611  0.27692192    -0.93200
O117        O  0.49837827  0.46044584  0.31164159    -0.92000
C118        C  0.41487756  0.05469283  0.26824797     1.17100
H119        H  0.46193301  0.43936805  0.22248132     0.33000
H120        H  0.56781158  0.49850666  0.28434838     0.43900
H121        H  0.46470130  0.06320739  0.22221719     0.37400
H122        H  0.58591153  0.00017548  0.17795293     0.33900
H123        H  0.55214323  0.41412683  0.29963329     0.25700
H124        H  0.68073437  0.01513361  0.21993349     0.31600
H125        H  0.58690595  0.08718049  0.16903511     0.37500
H126        H  0.45914856  0.41325580  0.28668508     0.32000
H127        H  0.36514281  0.47909664  0.23150471     0.30900
H128        H  0.37104184  0.02334255  0.19581933     0.32600
H129        H  0.46308393  0.08355323  0.17737461     0.31500
H130        H  0.48825239  0.48100337  0.31342462     0.35500
H131        H  0.48380862  0.04441536  0.31629293     0.28300
H132        H  0.53707817  0.42563341  0.14188287     0.32500
H133        H  0.54182082  0.06144477  0.13486125     0.35300
H134        H  0.39513910  0.45371952  0.23913697     0.27900
H135        H  0.52580522  0.02977010  0.31819879     0.40800
H136        H  0.63661968  0.47017840  0.27727961     0.30900
H137        H  0.58531781  0.42519437  0.28027799     0.38500
H138        H  0.45817475  0.05520249  0.15981930     0.30300
H139        H  0.65360979  0.02499181  0.19627354     0.30400
H140        H  0.54930648  0.45871085  0.13585243     0.30700
C141        C  0.28320304  0.11160579  0.32035711     0.01900
C142        C  0.28222874  0.14292722  0.32002245     0.01900
C143        C  0.25214760  0.15798449  0.33386258    -0.18600
C144        C  0.22361267  0.14211546  0.34835279     0.01900
C145        C  0.22453173  0.11076647  0.34826479     0.01900
C146        C  0.25383331  0.09580701  0.33387683    -0.18600
H147        H  0.25485197  0.07176393  0.33418653     0.03900
H148        H  0.25224090  0.18201994  0.33455070     0.03900
Zr149      Zr  0.01717189  0.20618571  0.44167732     2.17500
O150        O  0.00564790  0.19757821  0.39478295    -0.51700
O151        O  0.02149798  0.15379086  0.45358244    -0.74900
O152        O  0.07839950  0.19271026  0.41881862    -0.81700
O153        O  0.90571017  0.21512887  0.45564394    -0.83400
O154        O  0.13008623  0.21779324  0.43755136    -0.79000
O155        O  0.95018230  0.19201888  0.42850133    -0.90700
O156        O  0.03085099  0.15228246  0.49794577    -0.76600
O157        O  0.06745996  0.20538409  0.47484085    -0.86100
O158        O  0.98282116  0.20296951  0.48266998    -0.85800
O159        O  0.05420361  0.25140452  0.43628831    -0.72600
O160        O  0.97553083  0.24959219  0.44396893    -0.84700
Zr161      Zr  0.03052540  0.29072749  0.01351770     2.26400
Zr162      Zr  0.10330793  0.25099917  0.47073084     2.06300
Zr163      Zr  0.94245275  0.24660726  0.48576343     2.10000
Zr164      Zr  0.03199387  0.20208447  0.01536604     1.78800
O165        O  0.88519490  0.27431260  0.46912659    -0.93500
O166        O  0.09417079  0.17986169  0.03077951    -0.41300
O167        O  0.99216843  0.24621572  0.01840575    -0.78000
O168        O  0.07073540  0.24656655  0.01270413    -0.96600
O169        O  0.06282641  0.29432730  0.47338183    -0.90000
O170        O  0.97862153  0.29172917  0.48101461    -0.92800
C171        C  0.02665017  0.13976148  0.47538260     1.01000
C172        C  0.91458974  0.19756831  0.43659473     1.13900
C173        C  0.11556085  0.19920279  0.42097276     1.04700
O174        O  0.16342216  0.22731326  0.48773118    -0.94900
O175        O  0.13938079  0.28263878  0.50149131    -0.90700
O176        O  0.09655795  0.30774458  0.02539582    -0.83800
C177        C  0.13250296  0.30057350  0.01946656     1.11300
O178        O  0.00046476  0.28985051  0.39291280    -0.96900
Zr179      Zr  0.01293310  0.29461273  0.44014185     1.88900
O180        O  0.02923907  0.34318234  0.00159389    -0.73600
O181        O  0.14051457  0.28435393  0.44212014    -0.52800
O182        O  0.06645818  0.31637166  0.41401041    -0.97500
O183        O  0.95123863  0.31909148  0.42651021    -0.54700
O184        O  0.01878937  0.34442596  0.45780138    -0.74100
C185        C  0.02329141  0.35712033  0.48029429     0.98300
O186        O  0.03869773  0.29134916  0.06124723    -0.62900
O187        O  0.90061565  0.21870832  0.01222183    -0.57700
O188        O  0.97017035  0.30719074  0.03538425    -0.94400
O189        O  0.91902541  0.27999750  0.01888593    -0.92800
O190        O  0.97792547  0.17774182  0.03902623    -0.93200
O191        O  0.03748718  0.20479027  0.06323677    -0.92000
C192        C  0.93329442  0.29965607  0.03471106     1.17100
H193        H  0.96652799  0.18534407  0.48348842     0.33000
H194        H  0.08949125  0.24672322  0.02717806     0.43900
H195        H  0.96113972  0.30861292  0.48328828     0.37400
H196        H  0.06700730  0.25164510  0.41921067     0.33900
H197        H  0.08592899  0.16146270  0.03991973     0.25700
H198        H  0.16880034  0.27858731  0.44466832     0.31600
H199        H  0.05809554  0.33717288  0.41097316     0.37500
H200        H  0.98681192  0.15691770  0.04118343     0.32000
H201        H  0.87316726  0.22431054  0.00690773     0.30900
H202        H  0.86167195  0.26439929  0.47697378     0.32600
H203        H  0.94103151  0.32935455  0.44241669     0.31500
H204        H  0.05691612  0.22086806  0.06660632     0.35500
H205        H  0.01785307  0.27759689  0.06764154     0.28300
H206        H  0.01520834  0.17712163  0.39137260     0.32500
H207        H  0.99820039  0.31038120  0.38612550     0.35300
H208        H  0.90383210  0.19795780  0.00618231     0.27900
H209        H  0.06368712  0.28015068  0.06443514     0.40800
H210        H  0.15407730  0.20835705  0.49533690     0.30900
H211        H  0.10771867  0.17281413  0.01457002     0.38500
H212        H  0.93215374  0.30268561  0.42351511     0.30300
H213        H  0.13411596  0.27784067  0.42395197     0.30400
H214        H  0.02478854  0.21058452  0.38545395     0.30700
Zr215      Zr  0.03458486  0.45614372  0.01278785     2.17500
O216        O  0.05122861  0.45136087  0.05937215    -0.51700
O217        O  0.03099830  0.40373987  0.00114846    -0.74900
O218        O  0.97443405  0.44182306  0.03665145    -0.81700
O219        O  0.14480183  0.46578459  0.49908446    -0.83400
O220        O  0.92252993  0.46691690  0.01828129    -0.79000
O221        O  0.10176724  0.44144873  0.02498464    -0.90700
O222        O  0.02041013  0.40224734  0.45735751    -0.76600
O223        O  0.98418916  0.45456359  0.47924238    -0.86100
O224        O  0.06889702  0.45333441  0.47211383    -0.85800
O225        O  0.99475240  0.00095856  0.01789003    -0.72600
O226        O  0.07372167  0.99954561  0.01054922    -0.84700
Zr227      Zr  0.02245904  0.04074907  0.44081439     2.26400
Zr228      Zr  0.94704250  0.49968973  0.48289301     2.06300
Zr229      Zr  0.10820138  0.49730703  0.46908576     2.10000
Zr230      Zr  0.01943335  0.45183274  0.43872785     1.78800
O231        O  0.16378775  0.02357844  0.48895254    -0.93500
O232        O  0.95782871  0.42871911  0.42364874    -0.41300
O233        O  0.05956007  0.49564529  0.43480829    -0.78000
O234        O  0.98129416  0.49671161  0.44157242    -0.96600
O235        O  0.98740854  0.04371230  0.48154944    -0.90000
O236        O  0.07202036  0.04180146  0.47431175    -0.92800
C237        C  0.02455913  0.38983949  0.47998999     1.01000
C238        C  0.13711611  0.44795092  0.01711742     1.13900
C239        C  0.93717006  0.44854718  0.03509708     1.04700
O240        O  0.89303709  0.47033663  0.46418530    -0.94900
O241        O  0.91092592  0.03212786  0.45339930    -0.90700
O242        O  0.95618751  0.05677740  0.42857724    -0.83800
C243        C  0.92021697  0.05062939  0.43509402     1.11300
O244        O  0.04401427  0.03875317  0.06224006    -0.96900
Zr245      Zr  0.03559637  0.04427089  0.01469963     1.88900
O246        O  0.02353773  0.09315425  0.45315209    -0.73600
O247        O  0.90004792  0.02924994  0.00905406    -0.52800
O248        O  0.98180767  0.06861031  0.03892209    -0.97500
O249        O  0.09737867  0.06630136  0.03084409    -0.54700
O250        O  0.03283995  0.09434908  0.49760521    -0.74100
C251        C  0.02774003  0.10702032  0.47516989     0.98300
O252        O  0.01641901  0.04382482  0.39292718    -0.62900
O253        O  0.14808720  0.46739656  0.43885595    -0.57700
O254        O  0.08302170  0.05700975  0.41896471    -0.94400
O255        O  0.13399284  0.02893250  0.43498471    -0.92800
O256        O  0.07314570  0.42716809  0.41475490    -0.93200
O257        O  0.00964953  0.45486572  0.39118357    -0.92000
C258        C  0.11985546  0.04909529  0.41974749     1.17100
H259        H  0.08555041  0.43582411  0.47144502     0.33000
H260        H  0.96238511  0.49683472  0.42717688     0.43900
H261        H  0.08944813  0.05869971  0.47236818     0.37400
H262        H  0.98161369  0.00124053  0.03484803     0.33900
H263        H  0.96621702  0.40925545  0.41642707     0.25700
H264        H  0.87413488  0.01888853  0.00733265     0.31600
H265        H  0.96438781  0.07736968  0.02518424     0.37500
H266        H  0.06202487  0.40763632  0.40970416     0.32000
H267        H  0.17608704  0.47269321  0.44293655     0.30900
H268        H  0.18799262  0.01287797  0.48293582     0.32600
H269        H  0.10786781  0.07808229  0.01591552     0.31500
H270        H  0.02544451  0.47232963  0.38567072     0.35500
H271        H  0.03917011  0.03224053  0.38582223     0.28300
H272        H  0.04348670  0.43094173  0.06429932     0.32500
H273        H  0.04368459  0.05915879  0.06950106     0.35300
H274        H  0.14526102  0.44673616  0.44515318     0.27900
H275        H  0.99301027  0.03132412  0.38869404     0.40800
H276        H  0.89631973  0.47214492  0.44484018     0.30900
H277        H  0.94316546  0.42376062  0.44001560     0.38500
H278        H  0.11617445  0.04940533  0.03244673     0.30300
H279        H  0.90814483  0.02601104  0.02762088     0.30400
H280        H  0.03220632  0.46452376  0.06870196     0.30700
C281        C  0.32146947  0.35791122  0.10168415     0.01900
C282        C  0.32220496  0.38921295  0.10122874     0.01900
C283        C  0.29410189  0.40487840  0.08648089    -0.18600
C284        C  0.26475131  0.38979476  0.07240704     0.01900
C285        C  0.26450620  0.35845256  0.07213130     0.01900
C286        C  0.29309972  0.34272718  0.08663669    -0.18600
H287        H  0.29235768  0.31869630  0.08698774     0.03900
H288        H  0.29424747  0.42893354  0.08669119     0.03900
C289        C  0.76543544  0.39213981  0.13350184     0.01900
C290        C  0.76451297  0.36088143  0.13303757     0.01900
C291        C  0.79269743  0.34516896  0.11832930    -0.18600
C292        C  0.82065979  0.36018923  0.10289729     0.01900
C293        C  0.82192168  0.39161080  0.10345176     0.01900
C294        C  0.79443921  0.40730241  0.11897378    -0.18600
H295        H  0.79460549  0.43135396  0.11890477     0.03900
H296        H  0.79198972  0.32112807  0.11824470     0.03900
C297        C  0.86835961  0.43171016  0.04543118    -0.20700
C298        C  0.90840389  0.43434358  0.05359787    -0.07200
C299        C  0.91890082  0.42475004  0.07937955     0.13600
C300        C  0.88951095  0.41234044  0.09571316    -0.20700
C301        C  0.85035949  0.40833292  0.08679014    -0.07200
C302        C  0.83924457  0.41914746  0.06179438     0.13600
C303        C  0.79656333  0.41788687  0.05252487    -0.24100
H304        H  0.85965832  0.43940631  0.02600804     0.14900
H305        H  0.89727273  0.40507840  0.11543791     0.14900
C306        C  0.96054117  0.42772691  0.09019411    -0.24000
H307        H  0.79297688  0.42743982  0.03247266     0.05200
H308        H  0.77724200  0.43067814  0.06624821     0.08400
H309        H  0.78628485  0.39462861  0.05191223     0.08400
H310        H  0.97006063  0.45125603  0.08923758     0.08400
H311        H  0.98117875  0.41336968  0.07877457     0.08400
H312        H  0.96243454  0.42059060  0.11112861     0.05100
C313        C  0.17182135  0.43497757  0.05840687    -0.20700
C314        C  0.17078222  0.43378849  0.03077150    -0.07200
C315        C  0.20174433  0.41928566  0.01682595     0.13600
C316        C  0.23279138  0.40591939  0.03097583    -0.20700
C317        C  0.23370627  0.40700552  0.05856217    -0.07200
C318        C  0.20328122  0.42204906  0.07253347     0.13600
C319        C  0.20344941  0.42396972  0.10225709    -0.24100
H320        H  0.14809268  0.44634085  0.06893293     0.14900
H321        H  0.25620005  0.39410316  0.02054888     0.14900
C322        C  0.20033667  0.41626156  0.48807076    -0.24000
H323        H  0.17629529  0.43528972  0.10987462     0.05200
H324        H  0.22978110  0.43677631  0.10900759     0.08400
H325        H  0.20463207  0.40146546  0.11104423     0.08400
H326        H  0.20331770  0.43854206  0.47905964     0.08400
H327        H  0.17212957  0.40576248  0.48138150     0.08400
H328        H  0.22560341  0.40248304  0.48081125     0.05100
C329        C  0.88874103  0.34264634  0.09290755    -0.20700
C330        C  0.84832583  0.34272313  0.08625211    -0.07200
C331        C  0.83530380  0.32683697  0.06386074     0.13600
C332        C  0.86378357  0.31334944  0.04744447    -0.20700
C333        C  0.90494701  0.31463956  0.05316214    -0.07200
C334        C  0.91739579  0.32941426  0.07659615     0.13600
C335        C  0.96035796  0.33115936  0.08529892    -0.24100
H336        H  0.89794512  0.35330459  0.11106569     0.14900
H337        H  0.85364000  0.30173636  0.02996672     0.14900
C338        C  0.79155608  0.32356362  0.05737639    -0.24000
H339        H  0.96366056  0.34290825  0.10445468     0.05200
H340        H  0.97827664  0.34365974  0.07065625     0.08400
H341        H  0.97231758  0.30845777  0.08801981     0.08400
H342        H  0.77714802  0.34555491  0.05550232     0.08400
H343        H  0.77632499  0.31088388  0.07316506     0.08400
H344        H  0.78695515  0.31138979  0.03856313     0.05100
C345        C  0.19329900  0.34580911  0.06904802    -0.20700
C346        C  0.23183814  0.34213775  0.05907384    -0.07200
C347        C  0.23802972  0.32489625  0.03628821     0.13600
C348        C  0.20509426  0.31165895  0.02394571    -0.20700
C349        C  0.16587571  0.31569418  0.03355265    -0.07200
C350        C  0.16011006  0.33354152  0.05646037     0.13600
C351        C  0.11972002  0.34000125  0.06836161    -0.24100
H352        H  0.18916456  0.35887295  0.08676208     0.14900
H353        H  0.20816670  0.29921866  0.50656211     0.14900
C354        C  0.27911653  0.32108892  0.02462385    -0.24000
H355        H  0.12180852  0.35453011  0.08602791     0.05200
H356        H  0.10574310  0.31903913  0.07484914     0.08400
H357        H  0.10047377  0.35175323  0.05390208     0.08400
H358        H  0.29895356  0.30964921  0.03891026     0.08400
H359        H  0.29188127  0.34312241  0.01977227     0.08400
H360        H  0.27650819  0.30828978  0.50648078     0.05100
C361        C  0.20488841  0.15807434  0.39316502    -0.20700
C362        C  0.19617354  0.15832602  0.36612376    -0.07200
C363        C  0.16118506  0.17260942  0.35705123     0.13600
C364        C  0.13504781  0.18535518  0.37550512    -0.20700
C365        C  0.14355950  0.18469716  0.40262518    -0.07200
C366        C  0.17880342  0.17069807  0.41159719     0.13600
C367        C  0.18835599  0.16793934  0.44055955    -0.24100
H368        H  0.23214595  0.14752827  0.39990450     0.14900
H369        H  0.10810501  0.19629859  0.36863653     0.14900
C370        C  0.15066848  0.17503046  0.32822841    -0.24000
H371        H  0.21570168  0.15446787  0.44395451     0.05200
H372        H  0.16323920  0.15695696  0.45096679     0.08400
H373        H  0.19358181  0.19018958  0.44919491     0.08400
H374        H  0.12115091  0.16460975  0.32464954     0.08400
H375        H  0.17286037  0.16415748  0.31516983     0.08400
H376        H  0.14886883  0.19879643  0.32260983     0.05100
C377        C  0.13506140  0.06954004  0.37550653    -0.20700
C378        C  0.14773738  0.06399313  0.40149290    -0.07200
C379        C  0.18646190  0.07290022  0.40940933     0.13600
C380        C  0.21134727  0.08698647  0.39114040    -0.20700
C381        C  0.19808556  0.09332700  0.36558063    -0.07200
C382        C  0.15997511  0.08398104  0.35738742     0.13600
C383        C  0.14596881  0.08886889  0.32951188    -0.24100
H384        H  0.10564971  0.06235201  0.36931032     0.14900
H385        H  0.24102786  0.09392304  0.39701142     0.14900
C386        C  0.20117080  0.06904225  0.43730852    -0.24000
H387        H  0.11542330  0.08002394  0.32631129     0.05200
H388        H  0.16656235  0.07752513  0.31558749     0.08400
H389        H  0.14554071  0.11287955  0.32502101     0.08400
H390        H  0.20428572  0.04513083  0.44198168     0.08400
H391        H  0.17993389  0.07967081  0.45126721     0.08400
H392        H  0.23088583  0.07942284  0.44029176     0.05100
C393        C  0.69827973  0.41410219  0.13192995    -0.20700
C394        C  0.73308086  0.40896277  0.14640517    -0.07200
C395        C  0.73517182  0.41769177  0.17302446     0.13600
C396        C  0.70120052  0.42991692  0.18506692    -0.20700
C397        C  0.66549050  0.43433443  0.17087383    -0.07200
C398        C  0.66448461  0.42678034  0.14367783     0.13600
C399        C  0.62861183  0.43243781  0.12654084    -0.24100
H400        H  0.69748568  0.40771062  0.11130936     0.14900
H401        H  0.70265700  0.43614091  0.20570473     0.14900
C402        C  0.77340641  0.41479060  0.18846780    -0.24000
H403        H  0.63459104  0.42719349  0.10548444     0.05200
H404        H  0.62002156  0.45619978  0.12771507     0.08400
H405        H  0.60375976  0.41801624  0.13297236     0.08400
H406        H  0.79702963  0.42827391  0.17892724     0.08400
H407        H  0.78336346  0.39138684  0.18906181     0.08400
H408        H  0.76982558  0.42265480  0.20910981     0.05100
C409        C  0.34309579  0.40540742  0.14538623    -0.20700
C410        C  0.34973848  0.40595870  0.11816643    -0.07200
C411        C  0.38278967  0.42128852  0.10774096     0.13600
C412        C  0.40915099  0.43543141  0.12511681    -0.20700
C413        C  0.40242521  0.43493179  0.15243265    -0.07200
C414        C  0.36909868  0.41966483  0.16272654     0.13600
C415        C  0.36136313  0.41756328  0.19194255    -0.24100
H416        H  0.31747310  0.39360889  0.15306338     0.14900
H417        H  0.43480265  0.44720143  0.11739580     0.14900
C418        C  0.39036767  0.42245050  0.07845163    -0.24000
H419        H  0.33566385  0.40286792  0.19641162     0.05200
H420        H  0.35416839  0.43984093  0.19986794     0.08400
H421        H  0.38806266  0.40842045  0.20210998     0.08400
H422        H  0.36510883  0.43373162  0.06841286     0.08400
H423        H  0.39349003  0.39966680  0.07041296     0.08400
H424        H  0.41808440  0.43485127  0.07377611     0.05100
C425        C  0.31790262  0.09558325  0.27989804    -0.20700
C426        C  0.31599000  0.09525464  0.30745146    -0.07200
C427        C  0.34693988  0.08190196  0.32221713     0.13600
C428        C  0.37970265  0.06965284  0.30887687    -0.20700
C429        C  0.38157350  0.07000195  0.28125105    -0.07200
C430        C  0.35052900  0.08338570  0.26655099     0.13600
C431        C  0.35230966  0.08595915  0.23692186    -0.24100
H432        H  0.29393630  0.10578223  0.26881022     0.14900
H433        H  0.40350076  0.05913675  0.31998882     0.14900
C434        C  0.34551293  0.08058060  0.35192403    -0.24000
H435        H  0.32685393  0.09905337  0.22899868     0.05200
H436        H  0.35097531  0.06365928  0.22778820     0.08400
H437        H  0.38035809  0.09723845  0.23100721     0.08400
H438        H  0.31945349  0.06726209  0.35833654     0.08400
H439        H  0.34293356  0.10324942  0.36027488     0.08400
H440        H  0.37278923  0.07008733  0.36023690     0.05100
C441        C  0.66668852  0.32198408  0.14697554    -0.20700
C442        C  0.67047506  0.31597150  0.17404920    -0.07200
C443        C  0.70606044  0.32414130  0.18734405     0.13600
C444        C  0.73676973  0.33780697  0.17313328    -0.20700
C445        C  0.73242201  0.34432445  0.14633295    -0.07200
C446        C  0.69722906  0.33603037  0.13292745     0.13600
C447        C  0.69084104  0.34173342  0.10391645    -0.24100
H448        H  0.63972031  0.31557035  0.13661115     0.14900
H449        H  0.76428675  0.34362736  0.18303402     0.14900
C450        C  0.71145777  0.31984539  0.21662199    -0.24000
H451        H  0.68621551  0.32031153  0.09354296     0.05200
H452        H  0.71634178  0.35312377  0.09440955     0.08400
H453        H  0.66389712  0.35581240  0.10121161     0.08400
H454        H  0.71251446  0.29586119  0.22140292     0.08400
H455        H  0.68653517  0.33074124  0.22737719     0.08400
H456        H  0.73977558  0.32978195  0.22379919     0.05100
C457        C  0.36629838  0.31440480  0.15841575    -0.20700
C458        C  0.40751286  0.31653476  0.15291344    -0.07200
C459        C  0.41957791  0.33155834  0.12954903     0.13600
C460        C  0.39050529  0.34311530  0.11254126    -0.20700
C461        C  0.34985083  0.34120179  0.11840960    -0.07200
C462        C  0.33743805  0.32666084  0.14157373     0.13600
C463        C  0.29388844  0.32476417  0.14896362    -0.24100
H464        H  0.35636008  0.30337262  0.17621345     0.14900
H465        H  0.39953968  0.35449220  0.09471693     0.14900
C466        C  0.46262996  0.33581730  0.12193467    -0.24000
H467        H  0.28958455  0.31354768  0.16824875     0.05200
H468        H  0.27736377  0.31190492  0.13384705     0.08400
H469        H  0.28080143  0.34734576  0.15041929     0.08400
H470        H  0.47708382  0.31387802  0.11932532     0.08400
H471        H  0.47816334  0.34911188  0.13724111     0.08400
H472        H  0.46581523  0.34797993  0.10300089     0.05100
C473        C  0.34602167  0.18488516  0.27064435    -0.20700
C474        C  0.38354551  0.18483265  0.28336400    -0.07600
C475        C  0.38627098  0.17238569  0.30908839     0.13600
C476        C  0.35215326  0.16015186  0.32080399    -0.20700
C477        C  0.31535617  0.15977611  0.30778292    -0.07200
C478        C  0.31195862  0.17266120  0.28259688     0.13600
C479        C  0.27247853  0.17342005  0.26833754    -0.24100
H480        H  0.34321997  0.19441193  0.25111128     0.14900
H481        H  0.35420253  0.15041584  0.34028354     0.14900
C482        C  0.42430612  0.17241996  0.32495105    -0.24000
H483        H  0.27512148  0.18398063  0.24862959     0.05200
H484        H  0.25049620  0.18630965  0.28009605     0.08400
H485        H  0.26091969  0.15062530  0.26549320     0.08400
H486        H  0.43451520  0.19557640  0.32771831     0.08400
H487        H  0.44755097  0.15895355  0.31490336     0.08400
H488        H  0.42003406  0.16270530  0.34488626     0.05100
C489        C  0.86114647  0.09530469  0.38412233    -0.20700
C490        C  0.82213967  0.09079746  0.39280771    -0.07200
C491        C  0.81495416  0.07296981  0.41507606     0.13600
C492        C  0.84745353  0.06007227  0.42826775    -0.20700
C493        C  0.88716273  0.06528392  0.42019249    -0.07200
C494        C  0.89384232  0.08385549  0.39786341     0.13600
C495        C  0.93473347  0.09258363  0.38812504    -0.24100
H496        H  0.86602939  0.10882293  0.36678885     0.14900
H497        H  0.84160503  0.04623405  0.44528692     0.14900
C498        C  0.77322736  0.06830725  0.42540168    -0.24000
H499        H  0.93324037  0.10810935  0.37113900     0.05200
H500        H  0.95105851  0.07266825  0.38125958     0.08400
H501        H  0.95145610  0.10413594  0.40400392     0.08400
H502        H  0.75487907  0.05663305  0.41044139     0.08400
H503        H  0.75925597  0.09006111  0.43003639     0.08400
H504        H  0.77312930  0.05471012  0.44365849     0.05100
C505        C  0.88045452  0.18470911  0.39498412    -0.20700
C506        C  0.88141759  0.18305520  0.42259892    -0.07200
C507        C  0.85104053  0.16754174  0.43614908     0.13600
C508        C  0.82042872  0.15404772  0.42166303    -0.20700
C509        C  0.81942149  0.15581134  0.39408597    -0.07200
C510        C  0.84953511  0.17154014  0.38052527     0.13600
C511        C  0.84965061  0.17394991  0.35085015    -0.24100
H512        H  0.90385099  0.19661979  0.38471771     0.14900
H513        H  0.79745177  0.14158977  0.43181593     0.14900
C514        C  0.85153784  0.16412941  0.46571100    -0.24000
H515        H  0.87611039  0.18629619  0.34357303     0.05200
H516        H  0.82258227  0.18597235  0.34410936     0.08400
H517        H  0.85013452  0.15155223  0.34177744     0.08400
H518        H  0.84787227  0.18611407  0.47522672     0.08400
H519        H  0.88017905  0.15390710  0.47204497     0.08400
H520        H  0.82683603  0.14976119  0.47274004     0.05100
C521        C  0.66398668  0.08961163  0.34200622    -0.20700
C522        C  0.70393821  0.08961153  0.33409699    -0.07200
C523        C  0.71512899  0.07566294  0.31032397     0.13600
C524        C  0.68545442  0.06318700  0.29434785    -0.20700
C525        C  0.64489066  0.06390659  0.30173272    -0.07200
C526        C  0.63424618  0.07688082  0.32629995     0.13600
C527        C  0.59219259  0.07674564  0.33681709    -0.24100
H528        H  0.65605418  0.09994420  0.36059108     0.14900
H529        H  0.69409526  0.05305361  0.27579960     0.14900
C530        C  0.75812355  0.07435195  0.30153387    -0.24000
H531        H  0.59031370  0.08656235  0.35689303     0.05200
H532        H  0.58152300  0.05354302  0.33822000     0.08400
H533        H  0.57235120  0.09006971  0.32388921     0.08400
H534        H  0.77605823  0.06157281  0.31601798     0.08400
H535        H  0.77050519  0.09706397  0.29985465     0.08400
H536        H  0.76131631  0.06328932  0.28205261     0.05100
C537        C  0.70872121  0.15410624  0.30726964    -0.20700
C538        C  0.70230318  0.15434854  0.33454225    -0.07200
C539        C  0.66849896  0.16884002  0.34509849     0.13600
C540        C  0.64110682  0.18214373  0.32782436    -0.20700
C541        C  0.64765032  0.18191560  0.30049384    -0.07200
C542        C  0.68190004  0.16782123  0.29005520     0.13600
C543        C  0.68991985  0.16657296  0.26080966    -0.24100
H544        H  0.73494758  0.14309270  0.29944784     0.14900
H545        H  0.61496840  0.19332670  0.33566249     0.14900
C546        C  0.66131897  0.17023508  0.37441030    -0.24000
H547        H  0.71672938  0.15296895  0.25618078     0.05200
H548        H  0.69540351  0.18921934  0.25317733     0.08400
H549        H  0.66398943  0.15662437  0.25043651     0.08400
H550        H  0.68611492  0.18233187  0.38413288     0.08400
H551        H  0.65955189  0.14750525  0.38267214     0.08400
H552        H  0.63302461  0.18199272  0.37916702     0.05100
C553        C  0.73023488  0.13850058  0.85132649     0.01900
C554        C  0.73126284  0.10718989  0.85140741     0.01900
C555        C  0.76017346  0.09234398  0.86627456    -0.18600
C556        C  0.78904163  0.10829038  0.88021943     0.01900
C557        C  0.78887575  0.13965115  0.87937442     0.01900
C558        C  0.75891833  0.15449115  0.86540098    -0.18600
H559        H  0.75863663  0.17853141  0.86481728     0.03900
H560        H  0.76103333  0.06830530  0.86624405     0.03900
Zr561      Zr  0.53289367  0.29276123  0.69228397     2.17500
O562        O  0.54855300  0.30055523  0.64589480    -0.51700
O563        O  0.52818000  0.34457869  0.70525876    -0.74900
O564        O  0.47210439  0.30759510  0.66963193    -0.81700
O565        O  0.64399829  0.28273661  0.70493856    -0.83400
O566        O  0.42059635  0.28228031  0.68771964    -0.79000
O567        O  0.59956404  0.30894293  0.68038718    -0.90700
O568        O  0.51790898  0.34518872  0.74960062    -0.76600
O569        O  0.48349811  0.29377931  0.72604407    -0.86100
O570        O  0.56813051  0.29449286  0.73296040    -0.85800
O571        O  0.49479145  0.24811768  0.68611353    -0.72600
O572        O  0.57315160  0.24870993  0.69290515    -0.84700
Zr573      Zr  0.52076244  0.20642062  0.76306757     2.26400
Zr574      Zr  0.44647889  0.24889390  0.72097776     2.06300
Zr575      Zr  0.60732911  0.25031217  0.73415414     2.10000
Zr576      Zr  0.51895936  0.29488617  0.76657652     1.78800
O577        O  0.66201935  0.22345070  0.71330773    -0.93500
O578        O  0.45772913  0.31558793  0.78501370    -0.41300
O579        O  0.55901266  0.25087736  0.76879858    -0.78000
O580        O  0.48036775  0.25049675  0.76248344    -0.96600
O581        O  0.48563605  0.20468761  0.72228085    -0.90000
O582        O  0.57010251  0.20560651  0.72918301    -0.92800
C583        C  0.52249676  0.35810478  0.72724380     1.01000
C584        C  0.63531104  0.30206266  0.68731624     1.13900
C585        C  0.43490243  0.30107356  0.67124745     1.04700
O586        O  0.39066455  0.27624463  0.73996965    -0.94900
O587        O  0.40954638  0.21615024  0.75008374    -0.90700
O588        O  0.45377505  0.18994378  0.77475537    -0.83800
C589        C  0.41797279  0.19690726  0.76794442     1.11300
O590        O  0.54496928  0.21060432  0.64129296    -0.96900
Zr591      Zr  0.53489159  0.20409620  0.68861465     1.88900
O592        O  0.52278101  0.15450562  0.75026588    -0.73600
O593        O  0.40327431  0.21928416  0.69273033    -0.52800
O594        O  0.48132094  0.18150630  0.66310537    -0.97500
O595        O  0.59599122  0.18054706  0.67264976    -0.54700
O596        O  0.52966256  0.15378352  0.70560954    -0.74100
C597        C  0.52576505  0.14091470  0.72807690     0.98300
O598        O  0.51273640  0.20177114  0.81071732    -0.62900
O599        O  0.65020867  0.27797923  0.76419849    -0.57700
O600        O  0.58203487  0.19046584  0.78452412    -0.94400
O601        O  0.63349697  0.21682922  0.76695760    -0.92800
O602        O  0.57384434  0.31919062  0.78943997    -0.93200
O603        O  0.51477571  0.28979238  0.81432180    -0.92000
C604        C  0.61909586  0.19736378  0.78266670     1.17100
H605        H  0.58478285  0.31190336  0.73408213     0.33000
H606        H  0.46136234  0.25001641  0.77675818     0.43900
H607        H  0.58734222  0.18852994  0.73077498     0.37400
H608        H  0.48169131  0.24845853  0.66917622     0.33900
H609        H  0.46632438  0.33367602  0.79452825     0.25700
H610        H  0.37687527  0.22916161  0.69380918     0.31600
H611        H  0.49178433  0.16179130  0.65787579     0.37500
H612        H  0.56244532  0.33812778  0.79593294     0.32000
H613        H  0.67775468  0.27312308  0.75853989     0.30900
H614        H  0.68652220  0.23259034  0.72058459     0.32600
H615        H  0.60458908  0.16704047  0.68696039     0.31500
H616        H  0.52574223  0.26980506  0.81799534     0.35500
H617        H  0.53740958  0.20983404  0.81869910     0.28300
H618        H  0.54014783  0.32115208  0.64200746     0.32500
H619        H  0.54681547  0.19036760  0.63375736     0.35300
H620        H  0.64653620  0.29905884  0.75931163     0.27900
H621        H  0.49244571  0.21699996  0.81505872     0.40800
H622        H  0.39773214  0.27874001  0.75880303     0.30900
H623        H  0.44278211  0.32316568  0.76956143     0.38500
H624        H  0.61613099  0.19658622  0.67265021     0.30300
H625        H  0.41261953  0.22324532  0.67454434     0.30400
H626        H  0.52978319  0.28769703  0.63609012     0.30700
Zr627      Zr  0.52709065  0.45642842  0.69181600     2.17500
O628        O  0.52567023  0.44470716  0.64490337    -0.51700
O629        O  0.52615526  0.40454011  0.70533136    -0.74900
O630        O  0.59423804  0.44280936  0.67756346    -0.81700
O631        O  0.41424837  0.46839581  0.68788804    -0.83400
O632        O  0.63835832  0.46576543  0.70477042    -0.79000
O633        O  0.46588158  0.44347215  0.66877588    -0.90700
O634        O  0.51649450  0.40339436  0.74969243    -0.76600
O635        O  0.56224448  0.45396498  0.73263160    -0.86100
O636        O  0.47788031  0.45535938  0.72560961    -0.85800
O637        O  0.56825413  0.00028798  0.69186127    -0.72600
O638        O  0.48977124  0.00108198  0.68645939    -0.84700
Zr639      Zr  0.51719183  0.04275024  0.76318093     2.26400
Zr640      Zr  0.60281907  0.99863275  0.73329128     2.06300
Zr641      Zr  0.44208694  0.00031445  0.72145321     2.10000
Zr642      Zr  0.51277265  0.45365660  0.76625118     1.78800
O643        O  0.39873248  0.02892626  0.69241979    -0.93500
O644        O  0.56396880  0.42939327  0.79277418    -0.41300
O645        O  0.47512024  0.49870255  0.76283626    -0.78000
O646        O  0.55341696  0.49711560  0.76907275    -0.96600
O647        O  0.56574091  0.04359547  0.72891734    -0.90000
O648        O  0.48131715  0.04430868  0.72266525    -0.92800
C649        C  0.52158259  0.39074231  0.72728664     1.01000
C650        C  0.42869476  0.44992825  0.67119390     1.13900
C651        C  0.62992115  0.44860715  0.68534763     1.04700
O652        O  0.64827496  0.46920327  0.76095041    -0.94900
O653        O  0.62940605  0.02915124  0.76847824    -0.90700
O654        O  0.57912471  0.05780747  0.78447791    -0.83800
C655        C  0.61577158  0.04928543  0.78402579     1.11300
O656        O  0.53771452  0.03948471  0.64098392    -0.96900
Zr657      Zr  0.52978983  0.04504430  0.68857830     1.88900
O658        O  0.52077474  0.09466021  0.75016132    -0.73600
O659        O  0.65488104  0.02920163  0.71379816    -0.52800
O660        O  0.59201837  0.06766272  0.67403417    -0.97500
O661        O  0.47658929  0.06945703  0.66381958    -0.54700
O662        O  0.52801415  0.09538115  0.70553825    -0.74100
C663        C  0.52477295  0.10824919  0.72803825     0.98300
O664        O  0.51154649  0.04814495  0.81095446    -0.62900
O665        O  0.38730038  0.47435980  0.74336780    -0.57700
O666        O  0.45015488  0.05912667  0.77516744    -0.94400
O667        O  0.40584907  0.03342580  0.74998066    -0.92800
O668        O  0.44917070  0.43262607  0.78011926    -0.93200
O669        O  0.50331600  0.45803981  0.81370755    -0.92000
C670        C  0.41456741  0.05255558  0.76771534     1.17100
H671        H  0.46055141  0.43840852  0.72368443     0.33000
H672        H  0.56663867  0.49694122  0.78601129     0.43900
H673        H  0.46436891  0.06164636  0.72173103     0.37400
H674        H  0.58693875  0.99987398  0.67734938     0.33900
H675        H  0.55153682  0.41068036  0.79881237     0.25700
H676        H  0.67999090  0.01821619  0.71722339     0.31600
H677        H  0.58436659  0.08767906  0.66774665     0.37500
H678        H  0.44382376  0.41617111  0.76766886     0.32000
H679        H  0.36295095  0.48000477  0.73347418     0.30900
H680        H  0.37201189  0.01987582  0.69450628     0.32600
H681        H  0.46176930  0.08153195  0.67689634     0.31500
H682        H  0.49076221  0.47775558  0.81616618     0.35500
H683        H  0.48334208  0.04436887  0.81563459     0.28300
H684        H  0.53617862  0.42422698  0.64348350     0.32500
H685        H  0.54018589  0.05988489  0.63394602     0.35300
H686        H  0.39163162  0.45315949  0.73915182     0.27900
H687        H  0.52571782  0.03050991  0.81790751     0.40800
H688        H  0.64124854  0.44825766  0.75741081     0.30900
H689        H  0.58447394  0.42297501  0.77990275     0.38500
H690        H  0.45795209  0.05330217  0.65905731     0.30300
H691        H  0.65077691  0.02748256  0.69451571     0.30400
H692        H  0.54612528  0.45756551  0.63674629     0.30700
C693        C  0.28284821  0.10974338  0.81964572     0.01900
C694        C  0.28249507  0.14105454  0.81878415     0.01900
C695        C  0.25319336  0.15674603  0.83266909    -0.18600
C696        C  0.22490698  0.14155171  0.84780224     0.01900
C697        C  0.22503128  0.11022753  0.84833953     0.01900
C698        C  0.25352310  0.09455840  0.83380523    -0.18600
H699        H  0.25404332  0.07052083  0.83453389     0.03900
H700        H  0.25377441  0.18079049  0.83291449     0.03900
Zr701      Zr  0.01933448  0.20591766  0.94096386     2.17500
O702        O  0.00952197  0.19656023  0.89397438    -0.51700
O703        O  0.02236229  0.15362240  0.95313822    -0.74900
O704        O  0.08116615  0.19247540  0.91854039    -0.81700
O705        O  0.90791975  0.21660866  0.95312461    -0.83400
O706        O  0.13267774  0.21714481  0.93778515    -0.79000
O707        O  0.95244864  0.19246015  0.92672740    -0.90700
O708        O  0.03144160  0.15222116  0.99753347    -0.76600
O709        O  0.06802789  0.20408137  0.97513588    -0.86100
O710        O  0.98322439  0.20355053  0.98145387    -0.85800
O711        O  0.05793681  0.25052455  0.93638241    -0.72600
O712        O  0.97881179  0.24998182  0.94253319    -0.84700
Zr713      Zr  0.02860514  0.29080855  0.51430022     2.26400
Zr714      Zr  0.10556294  0.24898050  0.97168431     2.06300
Zr715      Zr  0.94403425  0.24791431  0.98379306     2.10000
Zr716      Zr  0.03309557  0.20221712  0.51559314     1.78800
O717        O  0.88907451  0.27661359  0.96529335    -0.93500
O718        O  0.09614634  0.17869740  0.52749249    -0.41300
O719        O  0.99183839  0.24558320  0.51965009    -0.78000
O720        O  0.07014924  0.24737745  0.51231133    -0.96600
O721        O  0.06638811  0.29304706  0.97319234    -0.90000
O722        O  0.98168436  0.29238410  0.97948976    -0.92800
C723        C  0.02726567  0.13966632  0.97498779     1.01000
C724        C  0.91679162  0.19863933  0.93435744     1.13900
C725        C  0.11835496  0.19891799  0.92086988     1.04700
O726        O  0.16035453  0.22021994  0.99036124    -0.94900
O727        O  0.14165155  0.28085650  0.00212498    -0.90700
O728        O  0.09452743  0.30803383  0.52623395    -0.83800
C729        C  0.13042276  0.30151552  0.51961676     1.11300
O730        O  0.01167166  0.28776005  0.89164093    -0.96900
Zr731      Zr  0.01769157  0.29433903  0.93922913     1.88900
O732        O  0.02670814  0.34330092  0.50238824    -0.73600
O733        O  0.14831100  0.28089508  0.94522964    -0.52800
O734        O  0.07137829  0.31858434  0.91505903    -0.97500
O735        O  0.95647428  0.31748250  0.92315999    -0.54700
O736        O  0.02119483  0.34426435  0.95702944    -0.74100
C737        C  0.02548510  0.35698843  0.97952500     0.98300
O738        O  0.03736911  0.29131384  0.56199380    -0.62900
O739        O  0.90203370  0.21564371  0.51464183    -0.57700
O740        O  0.96824910  0.30658448  0.53662524    -0.94400
O741        O  0.91754955  0.27832827  0.52089205    -0.92800
O742        O  0.98104730  0.17820556  0.54140196    -0.93200
O743        O  0.04655580  0.20545566  0.56273045    -0.92000
C744        C  0.93159191  0.29842883  0.53630133     1.17100
H745        H  0.96639191  0.18619270  0.98207627     0.33000
H746        H  0.08941914  0.24764603  0.52648819     0.43900
H747        H  0.96453368  0.30952808  0.98133484     0.37400
H748        H  0.07147232  0.25068963  0.91955444     0.33900
H749        H  0.08849182  0.16122636  0.53816657     0.25700
H750        H  0.17541971  0.27237824  0.94726097     0.31600
H751        H  0.06207409  0.33921839  0.91230435     0.37500
H752        H  0.99197042  0.15833789  0.54563603     0.32000
H753        H  0.87408296  0.22061472  0.51002658     0.30900
H754        H  0.86465487  0.26646013  0.97153182     0.32600
H755        H  0.94775102  0.33100585  0.93745169     0.31500
H756        H  0.03077819  0.22275338  0.56880793     0.35500
H757        H  0.01625028  0.27790878  0.56855087     0.28300
H758        H  0.01959161  0.17617609  0.89085765     0.32500
H759        H  0.00642792  0.30778663  0.88439686     0.35300
H760        H  0.90583325  0.19511595  0.50815440     0.27900
H761        H  0.06211803  0.27976598  0.56505044     0.40800
H762        H  0.15645278  0.22135346  0.00969757     0.30900
H763        H  0.10638800  0.17011238  0.51081665     0.38500
H764        H  0.93650826  0.30132479  0.92322994     0.30300
H765        H  0.14090143  0.27662594  0.92670399     0.30400
H766        H  0.02860894  0.20969243  0.88473388     0.30700
Zr767      Zr  0.03377132  0.45648759  0.51288125     2.17500
O768        O  0.04995858  0.45194871  0.55953341    -0.51700
O769        O  0.02977979  0.40395128  0.50174860    -0.74900
O770        O  0.97332545  0.44251531  0.53648852    -0.81700
O771        O  0.14541287  0.46621641  0.99856728    -0.83400
O772        O  0.92212170  0.46872822  0.51851045    -0.79000
O773        O  0.10063995  0.44166424  0.52559287    -0.90700
O774        O  0.02154649  0.40222522  0.95673889    -0.76600
O775        O  0.98466061  0.45416062  0.97940116    -0.86100
O776        O  0.06924545  0.45363576  0.97179262    -0.85800
O777        O  0.99607208  0.00108673  0.51840202    -0.72600
O778        O  0.07485842  0.99947380  0.51080838    -0.84700
Zr779      Zr  0.02191180  0.04078294  0.94052546     2.26400
Zr780      Zr  0.94701144  0.49900244  0.98347021     2.06300
Zr781      Zr  0.10818512  0.49779147  0.96889531     2.10000
Zr782      Zr  0.01935827  0.45207016  0.93865509     1.78800
O783        O  0.16454440  0.02342124  0.98737613    -0.93500
O784        O  0.95736502  0.42951389  0.92357049    -0.41300
O785        O  0.05922689  0.49602448  0.93478049    -0.78000
O786        O  0.98080507  0.49667317  0.94198323    -0.96600
O787        O  0.98632637  0.04341254  0.98108725    -0.90000
O788        O  0.07108819  0.04187796  0.97423121    -0.92800
C789        C  0.02603008  0.38972027  0.97931244     1.01000
C790        C  0.13611819  0.44779825  0.51776433     1.13900
C791        C  0.93630019  0.44994990  0.53517859     1.04700
O792        O  0.89380857  0.46929288  0.96419563    -0.94900
O793        O  0.91081194  0.03236116  0.95284307    -0.90700
O794        O  0.95604204  0.05745154  0.92832245    -0.83800
C795        C  0.92011316  0.05123391  0.93483629     1.11300
O796        O  0.04640023  0.03788780  0.56234213    -0.96900
Zr797      Zr  0.03698572  0.04431178  0.51496627     1.88900
O798        O  0.02340216  0.09311035  0.95286446    -0.73600
O799        O  0.90350675  0.03103879  0.51068602    -0.52800
O800        O  0.98278383  0.06761053  0.53951795    -0.97500
O801        O  0.09843919  0.06729629  0.53062825    -0.54700
O802        O  0.03278806  0.09429699  0.99729633    -0.74100
C803        C  0.02790243  0.10695941  0.97484719     0.98300
O804        O  0.01641342  0.04443513  0.89265292    -0.62900
O805        O  0.14867765  0.46886602  0.93827477    -0.57700
O806        O  0.08227335  0.05771014  0.91907176    -0.94400
O807        O  0.13339709  0.02988413  0.93528392    -0.92800
O808        O  0.07253352  0.42754885  0.91410026    -0.93200
O809        O  0.00892310  0.45617252  0.89124503    -0.92000
C810        C  0.11915834  0.05007297  0.92008300     1.17100
H811        H  0.08610058  0.43624416  0.97089011     0.33000
H812        H  0.96167308  0.49683837  0.92771686     0.43900
H813        H  0.08847361  0.05881230  0.97239267     0.37400
H814        H  0.98316793  0.00137750  0.53543804     0.33900
H815        H  0.96557593  0.41034090  0.91568091     0.25700
H816        H  0.87826944  0.01972595  0.51193735     0.31600
H817        H  0.99322407  0.08727604  0.54478265     0.37500
H818        H  0.05978319  0.40980735  0.90626545     0.32000
H819        H  0.17653809  0.47467990  0.94221447     0.30900
H820        H  0.18824766  0.01294836  0.98026956     0.32600
H821        H  0.10742693  0.08022074  0.51602212     0.31500
H822        H  0.02580360  0.47309457  0.88579975     0.35500
H823        H  0.03920843  0.03289542  0.88555185     0.28300
H824        H  0.04206863  0.43158391  0.56452917     0.32500
H825        H  0.04788182  0.05816674  0.56980031     0.35300
H826        H  0.14665100  0.44812855  0.94451246     0.27900
H827        H  0.99302953  0.03200572  0.88822215     0.40800
H828        H  0.89658801  0.47201914  0.94490421     0.30900
H829        H  0.94311319  0.42393043  0.93993346     0.38500
H830        H  0.11818267  0.05091439  0.53100441     0.30300
H831        H  0.91502788  0.03013098  0.52865590     0.30400
H832        H  0.03091055  0.46522889  0.56870754     0.30700
C833        C  0.31959519  0.35759667  0.60265459     0.01900
C834        C  0.32049462  0.38892093  0.60212209     0.01900
C835        C  0.29235205  0.40451530  0.58737306    -0.18600
C836        C  0.26298494  0.38935855  0.57337988     0.01900
C837        C  0.26281966  0.35801943  0.57304865     0.01900
C838        C  0.29137356  0.34235226  0.58755332    -0.18600
H839        H  0.29075821  0.31831483  0.58782292     0.03900
H840        H  0.29242031  0.42857060  0.58755374     0.03900
C841        C  0.76331325  0.39335818  0.63254587     0.01900
C842        C  0.76154892  0.36214186  0.63154309     0.01900
C843        C  0.78950260  0.34631373  0.61677766    -0.18600
C844        C  0.81822689  0.36120134  0.60188290     0.01900
C845        C  0.82014719  0.39258658  0.60275025     0.01900
C846        C  0.79279554  0.40837450  0.61831930    -0.18600
H847        H  0.79357453  0.43241399  0.61862577     0.03900
H848        H  0.78826201  0.32228151  0.61639294     0.03900
C849        C  0.86696682  0.43454095  0.54586170    -0.20700
C850        C  0.90728591  0.43591440  0.55367113    -0.07200
C851        C  0.91796313  0.42478966  0.57895272     0.13600
C852        C  0.88850526  0.41199834  0.59501200    -0.20700
C853        C  0.84902489  0.40923971  0.58634644    -0.07200
C854        C  0.83777169  0.42164393  0.56195849     0.13600
C855        C  0.79488434  0.42166683  0.55301040    -0.24100
H856        H  0.85809984  0.44341147  0.52687519     0.14900
H857        H  0.89639801  0.40367038  0.61437184     0.14900
C858        C  0.95984376  0.42656798  0.58958398    -0.24000
H859        H  0.79130613  0.43214660  0.53332793     0.05200
H860        H  0.77628804  0.43425539  0.56729756     0.08400
H861        H  0.78366034  0.39869250  0.55170062     0.08400
H862        H  0.97002894  0.44996467  0.58945548     0.08400
H863        H  0.97990104  0.41243031  0.57751760     0.08400
H864        H  0.96182618  0.41842391  0.61022339     0.05100
C865        C  0.17023014  0.43459578  0.55920363    -0.20700
C866        C  0.16947610  0.43347011  0.53156048    -0.07200
C867        C  0.20044569  0.41885929  0.51771324     0.13600
C868        C  0.23134434  0.40548816  0.53195153    -0.20700
C869        C  0.23198271  0.40651133  0.55952537    -0.07200
C870        C  0.20146428  0.42152151  0.57342974     0.13600
C871        C  0.20134330  0.42331163  0.60316082    -0.24100
H872        H  0.14646990  0.44601441  0.56965148     0.14900
H873        H  0.25485238  0.39370137  0.52159858     0.14900
C874        C  0.20147743  0.41684261  0.98717344    -0.24000
H875        H  0.17419007  0.43470516  0.61069595     0.05200
H876        H  0.22770155  0.43597755  0.61007505     0.08400
H877        H  0.20227334  0.40076772  0.61187425     0.08400
H878        H  0.20421808  0.43919187  0.97825266     0.08400
H879        H  0.17330511  0.40627369  0.98050777     0.08400
H880        H  0.22680709  0.40320949  0.97979542     0.05100
C881        C  0.88599111  0.34187946  0.59364179    -0.20700
C882        C  0.84612595  0.34348539  0.58569290    -0.07200
C883        C  0.83362557  0.32811608  0.56289619     0.13600
C884        C  0.86225657  0.31357495  0.54739356    -0.20700
C885        C  0.90299375  0.31353052  0.55432408    -0.07200
C886        C  0.91479565  0.32751321  0.57822092     0.13600
C887        C  0.95708980  0.32689665  0.58835991    -0.24100
H888        H  0.89460989  0.35206795  0.61213706     0.14900
H889        H  0.85265534  0.30245245  0.52952827     0.14900
C890        C  0.79028763  0.32677646  0.55486042    -0.24000
H891        H  0.95981389  0.33778637  0.60794895     0.05200
H892        H  0.97717824  0.33899552  0.57472399     0.08400
H893        H  0.96690249  0.30356598  0.59073324     0.08400
H894        H  0.77815874  0.34937610  0.55207600     0.08400
H895        H  0.77260907  0.31527538  0.57024238     0.08400
H896        H  0.78618534  0.31442427  0.53608589     0.05100
C897        C  0.19175329  0.34516489  0.57009134    -0.20700
C898        C  0.23021103  0.34167463  0.55997044    -0.07200
C899        C  0.23624810  0.32496554  0.53685503     0.13600
C900        C  0.20318644  0.31213583  0.52429814    -0.20700
C901        C  0.16397624  0.31621200  0.53393709    -0.07200
C902        C  0.15841434  0.33361002  0.55714985     0.13600
C903        C  0.11805349  0.34070158  0.56880431    -0.24100
H904        H  0.18776809  0.35782154  0.58805330     0.14900
H905        H  0.21017980  0.29839363  0.00642528     0.14900
C906        C  0.27729634  0.32130270  0.52509211    -0.24000
H907        H  0.12031192  0.35511647  0.58653860     0.05200
H908        H  0.10325605  0.31998309  0.57510562     0.08400
H909        H  0.09946658  0.35285697  0.55422817     0.08400
H910        H  0.29707808  0.30948598  0.53917236     0.08400
H911        H  0.29019649  0.34339650  0.52063402     0.08400
H912        H  0.27843509  0.30764390  0.00625621     0.05100
C913        C  0.20950087  0.16084481  0.89195860    -0.20700
C914        C  0.19839553  0.15854151  0.86542422    -0.07200
C915        C  0.16181493  0.17071195  0.85682892     0.13600
C916        C  0.13606814  0.18345875  0.87547707    -0.20700
C917        C  0.14658771  0.18496046  0.90228332    -0.07200
C918        C  0.18397094  0.17363498  0.91061258     0.13600
C919        C  0.19661629  0.17377584  0.93916837    -0.24100
H920        H  0.23808926  0.15193852  0.89817091     0.14900
H921        H  0.10777625  0.19265117  0.86897128     0.14900
C922        C  0.14926341  0.17085899  0.82828227    -0.24000
H923        H  0.22532708  0.16183400  0.94214656     0.05200
H924        H  0.17361281  0.16264480  0.95141336     0.08400
H925        H  0.20092633  0.19689466  0.94607520     0.08400
H926        H  0.12067099  0.15870444  0.82606605     0.08400
H927        H  0.17166972  0.16048770  0.81505358     0.08400
H928        H  0.14479237  0.19411152  0.82168122     0.05100
C929        C  0.13572540  0.06871742  0.87551156    -0.20700
C930        C  0.14695834  0.06524990  0.90204492    -0.07200
C931        C  0.18437423  0.07608492  0.91063343     0.13600
C932        C  0.20963998  0.08990819  0.89241793    -0.20700
C933        C  0.19814037  0.09364874  0.86606707    -0.07200
C934        C  0.16123883  0.08242426  0.85730855     0.13600
C935        C  0.14926845  0.08436756  0.82873607    -0.24100
H936        H  0.10722254  0.06011580  0.86890128     0.14900
H937        H  0.23842157  0.09819893  0.89879429     0.14900
C938        C  0.19731223  0.07412230  0.93905424    -0.24000
H939        H  0.11936091  0.07452916  0.82522025     0.05200
H940        H  0.17131862  0.07220721  0.81641997     0.08400
H941        H  0.14834635  0.10785181  0.82240012     0.08400
H942        H  0.20174499  0.05058861  0.94465292     0.08400
H943        H  0.17436537  0.08444136  0.95197826     0.08400
H944        H  0.22600134  0.08581751  0.94250518     0.05100
C945        C  0.69719961  0.41705321  0.63141894    -0.20700
C946        C  0.73152629  0.41035486  0.64588996    -0.07200
C947        C  0.73346812  0.41758304  0.67287596     0.13600
C948        C  0.69957141  0.42946424  0.68527687    -0.20700
C949        C  0.66415535  0.43505515  0.67109465    -0.07200
C950        C  0.66351904  0.42943920  0.64354777     0.13600
C951        C  0.62812196  0.43685085  0.62649874    -0.24100
H952        H  0.69660817  0.41201639  0.61050426     0.14900
H953        H  0.70081755  0.43444323  0.70618800     0.14900
C954        C  0.77148195  0.41349945  0.68834290    -0.24000
H955        H  0.63449390  0.43325219  0.60522363     0.05200
H956        H  0.61979527  0.46052898  0.62912592     0.08400
H957        H  0.60291084  0.42219529  0.63176617     0.08400
H958        H  0.79550412  0.42709410  0.67937145     0.08400
H959        H  0.78083787  0.38994660  0.68814614     0.08400
H960        H  0.76789871  0.42050835  0.70922839     0.05100
C961        C  0.34123308  0.40507780  0.64634434    -0.20700
C962        C  0.34793015  0.40576884  0.61913552    -0.07200
C963        C  0.38069792  0.42157137  0.60882453     0.13600
C964        C  0.40693109  0.43572243  0.62631442    -0.20700
C965        C  0.40034105  0.43486330  0.65364065    -0.07200
C966        C  0.36701508  0.41944085  0.66378722     0.13600
C967        C  0.35901494  0.41728265  0.69296042    -0.24100
H968        H  0.31571928  0.39307145  0.65393647     0.14900
H969        H  0.43243324  0.44773655  0.61867614     0.14900
C970        C  0.38819099  0.42320965  0.57954638    -0.24000
H971        H  0.33321531  0.40263409  0.69730477     0.05200
H972        H  0.35181260  0.43956626  0.70088957     0.08400
H973        H  0.38559115  0.40805631  0.70320559     0.08400
H974        H  0.36267535  0.43430548  0.56963062     0.08400
H975        H  0.39184099  0.40056807  0.57128826     0.08400
H976        H  0.41560188  0.43603515  0.57497984     0.05100
C977        C  0.31655101  0.09234262  0.77928810    -0.20700
C978        C  0.31523673  0.09288781  0.80684916    -0.07200
C979        C  0.34670313  0.08031532  0.82166188     0.13600
C980        C  0.37946917  0.06800837  0.80834228    -0.20700
C981        C  0.38083362  0.06750483  0.78068818    -0.07200
C982        C  0.34901669  0.07986364  0.76594744     0.13600
C983        C  0.34966507  0.08095084  0.73621907    -0.24100
H984        H  0.29223122  0.10210323  0.76819040     0.14900
H985        H  0.40373311  0.05819550  0.81951752     0.14900
C986        C  0.34586521  0.08002138  0.85141121    -0.24000
H987        H  0.32389186  0.09362641  0.72820960     0.05200
H988        H  0.34797432  0.05819277  0.72802342     0.08400
H989        H  0.37745149  0.09190678  0.72936424     0.08400
H990        H  0.32012788  0.06671918  0.85839407     0.08400
H991        H  0.34302371  0.10290976  0.85921258     0.08400
H992        H  0.37347381  0.07008055  0.85977153     0.05100
C993        C  0.66287751  0.32520738  0.64695404    -0.20700
C994        C  0.66863235  0.31695266  0.67343578    -0.07200
C995        C  0.70589706  0.32290442  0.68567798     0.13600
C996        C  0.73593104  0.33696188  0.67114071    -0.20700
C997        C  0.72959102  0.34568714  0.64503248    -0.07200
C998        C  0.69296635  0.33929921  0.63253582     0.13600
C999        C  0.68471384  0.34685159  0.60406905    -0.24100
H1000       H  0.63478143  0.32035035  0.63724863     0.14900
H1001       H  0.76460664  0.34127172  0.68022052     0.14900
C1002       C  0.71415540  0.31556822  0.71417849    -0.24000
H1003       H  0.67788845  0.32622515  0.59297667     0.05200
H1004       H  0.71024053  0.35781153  0.59418467     0.08400
H1005       H  0.65853198  0.36196026  0.60290422     0.08400
H1006       H  0.71448951  0.29117621  0.71700807     0.08400
H1007       H  0.69104881  0.32591712  0.72693222     0.08400
H1008       H  0.74367559  0.32403910  0.72071110     0.05100
C1009       C  0.36489681  0.31299357  0.65844715    -0.20700
C1010       C  0.40604447  0.31564952  0.65292219    -0.07200
C1011       C  0.41785858  0.33134929  0.62988109     0.13600
C1012       C  0.38860923  0.34305783  0.61315856    -0.20700
C1013       C  0.34806014  0.34083197  0.61914658    -0.07200
C1014       C  0.33584203  0.32560495  0.64200731     0.13600
C1015       C  0.29238169  0.32343406  0.64958406    -0.24100
H1016       H  0.35517578  0.30138686  0.67600842     0.14900
H1017       H  0.39741072  0.35486629  0.59550202     0.14900
C1018       C  0.46080517  0.33619350  0.62231300    -0.24000
H1019       H  0.28833915  0.31165804  0.66863276     0.05200
H1020       H  0.27565556  0.31099379  0.63429201     0.08400
H1021       H  0.27931423  0.34596490  0.65164105     0.08400
H1022       H  0.47552483  0.31445482  0.61916047     0.08400
H1023       H  0.47622177  0.34916996  0.63788583     0.08400
H1024       H  0.46374038  0.34893442  0.60366552     0.05100
C1025       C  0.34601933  0.18246188  0.76896959    -0.20700
C1026       C  0.38364561  0.18232533  0.78156780    -0.07600
C1027       C  0.38660287  0.16975109  0.80722497     0.13600
C1028       C  0.35255467  0.15768364  0.81907633    -0.20700
C1029       C  0.31569460  0.15737317  0.80618540    -0.07200
C1030       C  0.31203437  0.17033357  0.78106528     0.13600
C1031       C  0.27232344  0.17140388  0.76711812    -0.24100
H1032       H  0.34303515  0.19210336  0.74949252     0.14900
H1033       H  0.35466898  0.14817771  0.83862639     0.14900
C1034       C  0.42476217  0.16954757  0.82294363    -0.24000
H1035       H  0.27473921  0.18203180  0.74742703     0.05200
H1036       H  0.25069581  0.18439768  0.77907974     0.08400
H1037       H  0.26052928  0.14865917  0.76431258     0.08400
H1038       H  0.43479285  0.19267256  0.82605162     0.08400
H1039       H  0.44798845  0.15632390  0.81262379     0.08400
H1040       H  0.42072226  0.15944157  0.84274434     0.05100
C1041       C  0.86026594  0.09568846  0.88416924    -0.20700
C1042       C  0.82149886  0.09203277  0.89367556    -0.07200
C1043       C  0.81487969  0.07510362  0.91657137     0.13600
C1044       C  0.84760078  0.06216995  0.92946096    -0.20700
C1045       C  0.88701610  0.06631073  0.92038613    -0.07200
C1046       C  0.89325153  0.08410138  0.89752109     0.13600
C1047       C  0.93394375  0.09160187  0.88666495    -0.24100
H1048       H  0.86476372  0.10846428  0.86636683     0.14900
H1049       H  0.84216549  0.04903877  0.94697810     0.14900
C1050       C  0.77355471  0.07128031  0.92780492    -0.24000
H1051       H  0.93216470  0.10652901  0.86926878     0.05200
H1052       H  0.94913565  0.07109427  0.88006136     0.08400
H1053       H  0.95190165  0.10336133  0.90181439     0.08400
H1054       H  0.75435699  0.05929806  0.91352286     0.08400
H1055       H  0.76021513  0.09333135  0.93210202     0.08400
H1056       H  0.77399221  0.05831431  0.94642488     0.05100
C1057       C  0.88224931  0.18481756  0.89287882    -0.20700
C1058       C  0.88340503  0.18405350  0.92054819    -0.07200
C1059       C  0.85284213  0.16924870  0.93454201     0.13600
C1060       C  0.82156291  0.15601157  0.92055252    -0.20700
C1061       C  0.82020555  0.15698643  0.89297303    -0.07200
C1062       C  0.85078637  0.17160524  0.87887174     0.13600
C1063       C  0.85078676  0.17271618  0.84913035    -0.24100
H1064       H  0.90588804  0.19601426  0.88222931     0.14900
H1065       H  0.79835618  0.14424671  0.93112460     0.14900
C1066       C  0.85383376  0.16622964  0.96412472    -0.24000
H1067       H  0.87776572  0.18402836  0.84137575     0.05200
H1068       H  0.82420770  0.18509745  0.84206032     0.08400
H1069       H  0.85013574  0.14996634  0.84079442     0.08400
H1070       H  0.85024615  0.18834205  0.97338292     0.08400
H1071       H  0.88257568  0.15608384  0.97036850     0.08400
H1072       H  0.82927266  0.15195200  0.97150044     0.05100
C1073       C  0.66247918  0.09039216  0.84243590    -0.20700
C1074       C  0.70277687  0.08990486  0.83534003    -0.07200
C1075       C  0.71476363  0.07535419  0.81202355     0.13600
C1076       C  0.68568589  0.06235094  0.79585877    -0.20700
C1077       C  0.64478455  0.06347301  0.80240279    -0.07200
C1078       C  0.63324976  0.07745226  0.82638938     0.13600
C1079       C  0.59068053  0.07837590  0.83591100    -0.24100
H1080       H  0.65384710  0.10137888  0.86058254     0.14900
H1081       H  0.69507424  0.05164549  0.77773071     0.14900
C1082       C  0.75804062  0.07415680  0.80381939    -0.24000
H1083       H  0.58798783  0.08912566  0.85556227     0.05200
H1084       H  0.57938605  0.05540751  0.83791033     0.08400
H1085       H  0.57188174  0.09138301  0.82207578     0.08400
H1086       H  0.77568489  0.06174332  0.81870256     0.08400
H1087       H  0.77023749  0.09691736  0.80200961     0.08400
H1088       H  0.76194193  0.06282364  0.78452370     0.05100
C1089       C  0.70802463  0.15370268  0.80704312    -0.20700
C1090       C  0.70186648  0.15468206  0.83434114    -0.07200
C1091       C  0.66833506  0.16966511  0.84472788     0.13600
C1092       C  0.64112567  0.18293601  0.82731159    -0.20700
C1093       C  0.64744196  0.18200956  0.79997002    -0.07200
C1094       C  0.68124593  0.16723639  0.78966303     0.13600
C1095       C  0.68874996  0.16506139  0.76039640    -0.24100
H1096       H  0.73397429  0.14224983  0.79932909     0.14900
H1097       H  0.61524406  0.19454813  0.83503143     0.14900
C1098       C  0.66121120  0.17153467  0.87402541    -0.24000
H1099       H  0.71522756  0.15104806  0.75590010     0.05200
H1100       H  0.69444621  0.18742542  0.75217422     0.08400
H1101       H  0.66246466  0.15506792  0.75045396     0.08400
H1102       H  0.68631076  0.18341142  0.88362256     0.08400
H1103       H  0.65891300  0.14893222  0.88250695     0.08400
H1104       H  0.63319456  0.18370913  0.87867036     0.05100
C1105       C  0.73010271  0.63842773  0.35133020     0.01900
C1106       C  0.73103244  0.60713084  0.35117071     0.01900
C1107       C  0.75985561  0.59208405  0.36594332    -0.18600
C1108       C  0.78868259  0.60787708  0.38004499     0.01900
C1109       C  0.78851088  0.63922709  0.37945753     0.01900
C1110       C  0.75866328  0.65424199  0.36559115    -0.18600
H1111       H  0.75840219  0.67829208  0.36521353     0.03900
H1112       H  0.76063915  0.56804365  0.36576523     0.03900
Zr1113     Zr  0.53233108  0.79395212  0.19324847     2.17500
O1114       O  0.54758437  0.80140775  0.14675641    -0.51700
O1115       O  0.52800992  0.84563435  0.20653386    -0.74900
O1116       O  0.47141679  0.80880345  0.17075258    -0.81700
O1117       O  0.64344031  0.78448866  0.20624549    -0.83400
O1118       O  0.42025079  0.78268408  0.18845265    -0.79000
O1119       O  0.59900121  0.80988173  0.18097013    -0.90700
O1120       O  0.51656217  0.84611868  0.25075830    -0.76600
O1121       O  0.48275178  0.79439983  0.22695125    -0.86100
O1122       O  0.56734070  0.79572967  0.23401110    -0.85800
O1123       O  0.49475442  0.74913885  0.18683081    -0.72600
O1124       O  0.57320835  0.75030358  0.19381349    -0.84700
Zr1125     Zr  0.52127741  0.70707680  0.26355524     2.26400
Zr1126     Zr  0.44644950  0.74920215  0.22172893     2.06300
Zr1127     Zr  0.60706310  0.75183157  0.23517528     2.10000
Zr1128     Zr  0.51806586  0.79569155  0.26755305     1.78800
O1129       O  0.66175798  0.72569292  0.21364839    -0.93500
O1130       O  0.45661283  0.81638803  0.28566691    -0.41300
O1131       O  0.55869737  0.75189424  0.26973222    -0.78000
O1132       O  0.48038289  0.75092266  0.26317028    -0.96600
O1133       O  0.48634732  0.70537888  0.22274196    -0.90000
O1134       O  0.57059855  0.70689531  0.22974403    -0.92800
C1135       C  0.52170115  0.85909069  0.22847192     1.01000
C1136       C  0.63470372  0.80334313  0.18827165     1.13900
C1137       C  0.43433253  0.80185468  0.17219019     1.04700
O1138       O  0.38950785  0.77431681  0.24166691    -0.94900
O1139       O  0.41023200  0.71658771  0.25138717    -0.90700
O1140       O  0.45479582  0.69002607  0.27543567    -0.83800
C1141       C  0.41891415  0.69705385  0.26895687     1.11300
O1142       O  0.54808363  0.71210990  0.14199786    -0.96900
Zr1143     Zr  0.53561938  0.70550173  0.18905830     1.88900
O1144       O  0.52329367  0.65534859  0.24974796    -0.73600
O1145       O  0.40494089  0.71803870  0.19370833    -0.52800
O1146       O  0.48244894  0.68374046  0.16261698    -0.97500
O1147       O  0.59712589  0.68142024  0.17443352    -0.54700
O1148       O  0.52977039  0.65499220  0.20506863    -0.74100
C1149       C  0.52605901  0.64194359  0.22743168     0.98300
O1150       O  0.51325065  0.70164059  0.31116063    -0.62900
O1151       O  0.64920405  0.78015188  0.26517473    -0.57700
O1152       O  0.58268362  0.69114662  0.28475272    -0.94400
O1153       O  0.63382435  0.71834862  0.26781082    -0.92800
O1154       O  0.57177665  0.82104347  0.29075416    -0.93200
O1155       O  0.51320848  0.78932294  0.31516891    -0.92000
C1156       C  0.61961680  0.69844069  0.28316679     1.17100
H1157       H  0.58379977  0.81323423  0.23520708     0.33000
H1158       H  0.46139044  0.75024152  0.27744510     0.43900
H1159       H  0.58805943  0.68993430  0.23125129     0.37400
H1160       H  0.48163782  0.74950627  0.16990058     0.33900
H1161       H  0.46513152  0.83446620  0.29523072     0.25700
H1162       H  0.37732048  0.72491596  0.19714824     0.31600
H1163       H  0.49211924  0.66358253  0.15811472     0.37500
H1164       H  0.55946007  0.83953841  0.29752648     0.32000
H1165       H  0.67687639  0.77505804  0.25997156     0.30900
H1166       H  0.68625546  0.73448554  0.22125900     0.32600
H1167       H  0.60348743  0.66646133  0.18809594     0.31500
H1168       H  0.52883338  0.77113610  0.31892922     0.35500
H1169       H  0.53804333  0.70930180  0.31929036     0.28300
H1170       H  0.53877002  0.82185723  0.14267820     0.32500
H1171       H  0.54948196  0.69186869  0.13442861     0.35300
H1172       H  0.64580826  0.80111232  0.25981969     0.27900
H1173       H  0.49316986  0.71693981  0.31576423     0.40800
H1174       H  0.39558676  0.79571313  0.24005241     0.30900
H1175       H  0.44185420  0.82399079  0.27015102     0.38500
H1176       H  0.61800397  0.69675110  0.17647367     0.30300
H1177       H  0.41068258  0.72458425  0.17546476     0.30400
H1178       H  0.52903305  0.78821649  0.13712085     0.30700
Zr1179     Zr  0.52602606  0.95702977  0.19221570     2.17500
O1180       O  0.52410985  0.94659143  0.14509216    -0.51700
O1181       O  0.52512397  0.90534757  0.20635939    -0.74900
O1182       O  0.59284285  0.94244054  0.17779855    -0.81700
O1183       O  0.41345977  0.97014389  0.18828106    -0.83400
O1184       O  0.63762871  0.96636813  0.20373969    -0.79000
O1185       O  0.46437273  0.94338351  0.17024457    -0.90700
O1186       O  0.51573336  0.90451753  0.25077299    -0.76600
O1187       O  0.56140240  0.95448980  0.23284227    -0.86100
O1188       O  0.47705590  0.95679031  0.22620505    -0.85800
O1189       O  0.56906161  0.50109028  0.19095708    -0.72600
O1190       O  0.49125623  0.50222078  0.18515019    -0.84700
Zr1191     Zr  0.51691818  0.54366066  0.26221967     2.26400
Zr1192     Zr  0.60285931  0.49939948  0.23260638     2.06300
Zr1193     Zr  0.44267787  0.50155412  0.21961321     2.10000
Zr1194     Zr  0.51225219  0.95500688  0.26671099     1.78800
O1195       O  0.39862833  0.52995861  0.19089781    -0.93500
O1196       O  0.56390402  0.93137688  0.29330556    -0.41300
O1197       O  0.47518052  0.00030103  0.26305083    -0.78000
O1198       O  0.55368316  0.99807900  0.26893078    -0.96600
O1199       O  0.56618037  0.54457443  0.22840766    -0.90000
O1200       O  0.48200471  0.54552697  0.22133402    -0.92800
C1201       C  0.52070915  0.89171580  0.22842358     1.01000
C1202       C  0.42745820  0.95077040  0.17223211     1.13900
C1203       C  0.62878356  0.94860494  0.18483544     1.04700
O1204       O  0.64435471  0.96801658  0.26191214    -0.94900
O1205       O  0.62896736  0.53087527  0.26733923    -0.90700
O1206       O  0.57825725  0.55828832  0.28444161    -0.83800
C1207       C  0.61509867  0.55033397  0.28348183     1.11300
O1208       O  0.54007991  0.54296447  0.14002355    -0.96900
Zr1209     Zr  0.53127884  0.54615157  0.18770952     1.88900
O1210       O  0.52011137  0.59556326  0.24909963    -0.73600
O1211       O  0.65455989  0.52945792  0.21198061    -0.52800
O1212       O  0.59532271  0.56685077  0.17428207    -0.97500
O1213       O  0.47794895  0.56960134  0.16239966    -0.54700
O1214       O  0.52953332  0.59653286  0.20465516    -0.74100
C1215       C  0.52514207  0.60927721  0.22713811     0.98300
O1216       O  0.51108541  0.54971490  0.30996267    -0.62900
O1217       O  0.38674729  0.97678307  0.24409969    -0.57700
O1218       O  0.44952965  0.55913747  0.27425472    -0.94400
O1219       O  0.40563209  0.53405296  0.24828431    -0.92800
O1220       O  0.44925926  0.93244146  0.27971967    -0.93200
O1221       O  0.50065551  0.96068484  0.31389069    -0.92000
C1222       C  0.41406169  0.55262672  0.26654240     1.17100
H1223       H  0.45947302  0.93994195  0.22456559     0.33000
H1224       H  0.56721498  0.99797522  0.28576239     0.43900
H1225       H  0.46509624  0.56288123  0.22026822     0.37400
H1226       H  0.58798388  0.50063734  0.17658142     0.33900
H1227       H  0.55079887  0.91374287  0.30104610     0.25700
H1228       H  0.67992607  0.52184065  0.21942225     0.31600
H1229       H  0.58997725  0.58812179  0.17089767     0.37500
H1230       H  0.45698427  0.91407881  0.28915789     0.32000
H1231       H  0.36269373  0.98147941  0.23352857     0.30900
H1232       H  0.37198092  0.52088243  0.19328833     0.32600
H1233       H  0.46540520  0.58404918  0.17458605     0.31500
H1234       H  0.48386817  0.97871528  0.31544127     0.35500
H1235       H  0.48289566  0.54604951  0.31474163     0.28300
H1236       H  0.53366962  0.92591696  0.14319650     0.32500
H1237       H  0.54429015  0.56361004  0.13398102     0.35300
H1238       H  0.39168329  0.95540501  0.24102472     0.27900
H1239       H  0.52521336  0.53217646  0.31713983     0.40800
H1240       H  0.64088124  0.94748667  0.25536396     0.30900
H1241       H  0.58299509  0.92308487  0.28031968     0.38500
H1242       H  0.45764742  0.55387891  0.16016315     0.30300
H1243       H  0.65506147  0.52319655  0.19325346     0.30400
H1244       H  0.54512777  0.95916225  0.13722774     0.30700
C1245       C  0.28333548  0.60909844  0.32012706     0.01900
C1246       C  0.28370597  0.64043427  0.31965883     0.01900
C1247       C  0.25474079  0.65629188  0.33377853    -0.18600
C1248       C  0.22591164  0.64123519  0.34858886     0.01900
C1249       C  0.22541427  0.60990396  0.34872815     0.01900
C1250       C  0.25370925  0.59411133  0.33413081    -0.18600
H1251       H  0.25379082  0.57006545  0.33464864     0.03900
H1252       H  0.25578758  0.68032002  0.33426494     0.03900
Zr1253     Zr  0.01877539  0.70616145  0.44059902     2.17500
O1254       O  0.01039366  0.69874100  0.39323581    -0.51700
O1255       O  0.02096434  0.65375103  0.45232426    -0.74900
O1256       O  0.08099417  0.69133475  0.41944587    -0.81700
O1257       O  0.90737162  0.71590031  0.45342434    -0.83400
O1258       O  0.13195753  0.71729385  0.43782049    -0.79000
O1259       O  0.95183076  0.69268947  0.42633573    -0.90700
O1260       O  0.03114106  0.65217046  0.49662805    -0.76600
O1261       O  0.06780037  0.70446238  0.47455724    -0.86100
O1262       O  0.98317717  0.70306071  0.48118550    -0.85800
O1263       O  0.05714102  0.75092524  0.43620538    -0.72600
O1264       O  0.97787111  0.74998386  0.44264270    -0.84700
Zr1265     Zr  0.02886711  0.79080916  0.01372610     2.26400
Zr1266     Zr  0.10490997  0.74951338  0.47141400     2.06300
Zr1267     Zr  0.94354795  0.74707636  0.48403016     2.10000
Zr1268     Zr  0.03330472  0.70211845  0.01532764     1.78800
O1269       O  0.88597136  0.77383286  0.46672829    -0.93500
O1270       O  0.09701292  0.67968623  0.02747652    -0.41300
O1271       O  0.99214169  0.74559458  0.01899824    -0.78000
O1272       O  0.07034159  0.74729238  0.01226865    -0.96600
O1273       O  0.06521541  0.79332498  0.47335367    -0.90000
O1274       O  0.98052398  0.79192772  0.47971829    -0.92800
C1275       C  0.02641385  0.63971767  0.47407312     1.01000
C1276       C  0.91619045  0.69836692  0.43434388     1.13900
C1277       C  0.11809150  0.69821889  0.42151170     1.04700
O1278       O  0.15909101  0.72095682  0.49107923    -0.94900
O1279       O  0.14076070  0.78195334  0.50150441    -0.90700
O1280       O  0.09470641  0.80809041  0.02577220    -0.83800
C1281       C  0.13071290  0.80146284  0.01951117     1.11300
O1282       O  0.01043355  0.78786322  0.39182277    -0.96900
Zr1283     Zr  0.01650699  0.79448664  0.43941605     1.88900
O1284       O  0.02633860  0.84320451  0.00169814    -0.73600
O1285       O  0.14885434  0.77983981  0.44428175    -0.52800
O1286       O  0.07038601  0.81904108  0.41565852    -0.97500
O1287       O  0.95564408  0.81807127  0.42329555    -0.54700
O1288       O  0.02011407  0.84427922  0.45738487    -0.74100
C1289       C  0.02415562  0.85689159  0.47994615     0.98300
O1290       O  0.03584880  0.79153938  0.06151789    -0.62900
O1291       O  0.90059534  0.71723192  0.01390697    -0.57700
O1292       O  0.96874740  0.80712106  0.03595999    -0.94400
O1293       O  0.91828601  0.77830319  0.02081368    -0.92800
O1294       O  0.98223862  0.67710550  0.04124774    -0.93200
O1295       O  0.04562863  0.70685671  0.06249377    -0.92000
C1296       C  0.93222715  0.79868880  0.03602492     1.17100
H1297       H  0.96654645  0.68559976  0.48166958     0.33000
H1298       H  0.08937650  0.74765262  0.02658136     0.43900
H1299       H  0.96313852  0.80892665  0.48165780     0.37400
H1300       H  0.07066312  0.75114226  0.41936976     0.33900
H1301       H  0.08985996  0.66249402  0.03864747     0.25700
H1302       H  0.17595251  0.77184147  0.44763500     0.31600
H1303       H  0.05983697  0.83898462  0.41129209     0.37500
H1304       H  0.99269615  0.65678186  0.04403673     0.32000
H1305       H  0.87295061  0.72282886  0.00905284     0.30900
H1306       H  0.86348618  0.76793713  0.47826192     0.32600
H1307       H  0.94617841  0.83069913  0.43802275     0.31500
H1308       H  0.02658461  0.72228425  0.06848325     0.35500
H1309       H  0.01489417  0.77779114  0.06775989     0.28300
H1310       H  0.02045358  0.67846264  0.38960891     0.32500
H1311       H  0.00829700  0.80809803  0.38436246     0.35300
H1312       H  0.90370519  0.69656286  0.00762017     0.27900
H1313       H  0.06080736  0.78039613  0.06495537     0.40800
H1314       H  0.15429674  0.72197012  0.51033178     0.30900
H1315       H  0.10733254  0.67072131  0.01097737     0.38500
H1316       H  0.93592233  0.80177966  0.42232449     0.30300
H1317       H  0.14287866  0.77411574  0.42583678     0.30400
H1318       H  0.02996076  0.71215161  0.38478516     0.30700
Zr1319     Zr  0.03280911  0.95604294  0.01273655     2.17500
O1320       O  0.04884455  0.95137903  0.05939841    -0.51700
O1321       O  0.02791402  0.90368929  0.00131219    -0.74900
O1322       O  0.97219681  0.94225374  0.03634794    -0.81700
O1323       O  0.14478291  0.96403586  0.49833607    -0.83400
O1324       O  0.92095028  0.96807061  0.01796315    -0.79000
O1325       O  0.09959124  0.94048625  0.02506899    -0.90700
O1326       O  0.02038289  0.90213826  0.45725536    -0.76600
O1327       O  0.98367759  0.95467874  0.47985759    -0.86100
O1328       O  0.06844636  0.95295229  0.47216073    -0.85800
O1329       O  0.99568120  0.50065662  0.01810208    -0.72600
O1330       O  0.07459433  0.50010287  0.01044335    -0.84700
Zr1331     Zr  0.02189032  0.54057927  0.43999932     2.26400
Zr1332     Zr  0.94727053  0.00013208  0.48380632     2.06300
Zr1333     Zr  0.10832758  0.99667238  0.46924483     2.10000
Zr1334     Zr  0.01834562  0.95194486  0.43914709     1.78800
O1335       O  0.16485364  0.52417669  0.48731877    -0.93500
O1336       O  0.95538071  0.92954712  0.42561868    -0.41300
O1337       O  0.05916742  0.99542284  0.43530183    -0.78000
O1338       O  0.98116816  0.99718951  0.44236139    -0.96600
O1339       O  0.98658377  0.54352157  0.48059784    -0.90000
O1340       O  0.07112141  0.54216398  0.47368969    -0.92800
C1341       C  0.02480023  0.88960982  0.47981130     1.01000
C1342       C  0.13514469  0.94680372  0.01748459     1.13900
C1343       C  0.93509992  0.94945999  0.03476636     1.04700
O1344       O  0.89173560  0.97278934  0.46460628    -0.94900
O1345       O  0.91084105  0.53164859  0.45230921    -0.90700
O1346       O  0.95582002  0.55699078  0.42779764    -0.83800
C1347       C  0.91993054  0.55051260  0.43424932     1.11300
O1348       O  0.04494402  0.53765543  0.06198198    -0.96900
Zr1349     Zr  0.03560376  0.54436455  0.01463994     1.88900
O1350       O  0.02256573  0.59308199  0.45194872    -0.73600
O1351       O  0.90134559  0.52849238  0.01022819    -0.52800
O1352       O  0.98112887  0.56792933  0.03879539    -0.97500
O1353       O  0.09682978  0.56764541  0.03030375    -0.54700
O1354       O  0.03265594  0.59450707  0.49630533    -0.74100
C1355       C  0.02724538  0.60703797  0.47387255     0.98300
O1356       O  0.01561074  0.54287245  0.39208476    -0.62900
O1357       O  0.15066625  0.96845870  0.43920075    -0.57700
O1358       O  0.08232441  0.55694978  0.41836756    -0.94400
O1359       O  0.13405135  0.53033559  0.43551148    -0.92800
O1360       O  0.07030710  0.92741524  0.41343437    -0.93200
O1361       O  0.00733551  0.95557149  0.39176876    -0.92000
C1362       C  0.11934900  0.54986063  0.41984971     1.17100
H1363       H  0.08498915  0.93539330  0.47133313     0.33000
H1364       H  0.96211663  0.99749329  0.42805096     0.43900
H1365       H  0.08835095  0.55917015  0.47173266     0.37400
H1366       H  0.98275944  0.50081007  0.03513403     0.33900
H1367       H  0.96318939  0.91156319  0.41561645     0.25700
H1368       H  0.87634060  0.51682702  0.01072908     0.31600
H1369       H  0.99144984  0.58769179  0.04387751     0.37500
H1370       H  0.08326435  0.91333890  0.42575414     0.32000
H1371       H  0.17827027  0.97417957  0.44396456     0.30900
H1372       H  0.18862684  0.51270470  0.48167990     0.32600
H1373       H  0.10653326  0.57972859  0.01533200     0.31500
H1374       H  0.01880655  0.97500168  0.38681558     0.35500
H1375       H  0.03936407  0.53245412  0.38499097     0.28300
H1376       H  0.04146903  0.93085006  0.06421876     0.32500
H1377       H  0.04519189  0.55788218  0.06961462     0.35300
H1378       H  0.14824029  0.94758281  0.44499858     0.27900
H1379       H  0.99345610  0.52910029  0.38803779     0.40800
H1380       H  0.89571000  0.95201693  0.47037567     0.30900
H1381       H  0.94354824  0.92176363  0.44210888     0.38500
H1382       H  0.11629671  0.55114149  0.03162346     0.30300
H1383       H  0.91211794  0.52722585  0.02838508     0.30400
H1384       H  0.02937948  0.96427713  0.06861830     0.30700
C1385       C  0.31849529  0.85842115  0.10386551     0.01900
C1386       C  0.31926915  0.88974652  0.10328232     0.01900
C1387       C  0.29148807  0.90522832  0.08813384    -0.18600
C1388       C  0.26241406  0.88997688  0.07393827     0.01900
C1389       C  0.26208287  0.85864045  0.07386577     0.01900
C1390       C  0.29042510  0.84307201  0.08867282    -0.18600
H1391       H  0.28984694  0.81903688  0.08902155     0.03900
H1392       H  0.29158590  0.92928274  0.08815023     0.03900
C1393       C  0.76220405  0.89285613  0.13194648     0.01900
C1394       C  0.76172290  0.86161022  0.13216282     0.01900
C1395       C  0.79038595  0.84567733  0.11805301    -0.18600
C1396       C  0.81849356  0.86045161  0.10252687     0.01900
C1397       C  0.81910156  0.89189997  0.10223492     0.01900
C1398       C  0.79107499  0.90781216  0.11716161    -0.18600
H1399       H  0.79092190  0.93185352  0.11658157     0.03900
H1400       H  0.79003975  0.82163733  0.11857733     0.03900
C1401       C  0.86617658  0.93239424  0.04455920    -0.20700
C1402       C  0.90598284  0.93536726  0.05311246    -0.07200
C1403       C  0.91607409  0.92575598  0.07896164     0.13600
C1404       C  0.88654220  0.91303309  0.09498592    -0.20700
C1405       C  0.84774651  0.90848068  0.08561788    -0.07200
C1406       C  0.83702728  0.91915122  0.06048666     0.13600
C1407       C  0.79481545  0.91675751  0.05049471    -0.24100
H1408       H  0.85780654  0.94008315  0.02507097     0.14900
H1409       H  0.89393293  0.90596677  0.11482870     0.14900
C1410       C  0.95743660  0.92902416  0.09016448    -0.24000
H1411       H  0.79152808  0.92631537  0.03042245     0.05200
H1412       H  0.77428349  0.92887969  0.06392196     0.08400
H1413       H  0.78584986  0.89320903  0.04957648     0.08400
H1414       H  0.96665614  0.95262590  0.08933725     0.08400
H1415       H  0.97851053  0.91485515  0.07891648     0.08400
H1416       H  0.95899283  0.92182595  0.11109574     0.05100
C1417       C  0.16918440  0.93424335  0.05908173    -0.20700
C1418       C  0.16844150  0.93260039  0.03145701    -0.07200
C1419       C  0.19973141  0.91812360  0.01781820     0.13600
C1420       C  0.23100146  0.90549402  0.03223858    -0.20700
C1421       C  0.23157695  0.90698392  0.05979905    -0.07200
C1422       C  0.20076433  0.92189342  0.07348160     0.13600
C1423       C  0.20074321  0.92433309  0.10317436    -0.24100
H1424       H  0.14520503  0.94558807  0.06937170     0.14900
H1425       H  0.25476495  0.89381698  0.02205345     0.14900
C1426       C  0.20113349  0.91525073  0.48819625    -0.24000
H1427       H  0.17348288  0.93569735  0.11056608     0.05200
H1428       H  0.22694905  0.93735723  0.10981755     0.08400
H1429       H  0.20201615  0.90196840  0.11224466     0.08400
H1430       H  0.20407209  0.93744585  0.47901856     0.08400
H1431       H  0.17309522  0.90455470  0.48144278     0.08400
H1432       H  0.22658851  0.90150614  0.48117236     0.05100
C1433       C  0.88704455  0.84304673  0.09324174    -0.20700
C1434       C  0.84663661  0.84266623  0.08647481    -0.07200
C1435       C  0.83395186  0.82591970  0.06449913     0.13600
C1436       C  0.86263806  0.81188486  0.04864316    -0.20700
C1437       C  0.90374232  0.81369100  0.05435201    -0.07200
C1438       C  0.91594937  0.82938861  0.07735948     0.13600
C1439       C  0.95888605  0.83168832  0.08602462    -0.24100
H1440       H  0.89604329  0.85438070  0.11111407     0.14900
H1441       H  0.85270428  0.79962170  0.03146695     0.14900
C1442       C  0.79032463  0.82252073  0.05771930    -0.24000
H1443       H  0.96200788  0.84412508  0.10484877     0.05200
H1444       H  0.97671215  0.84377519  0.07106394     0.08400
H1445       H  0.97110383  0.80916622  0.08936976     0.08400
H1446       H  0.77604296  0.84447814  0.05521293     0.08400
H1447       H  0.77472312  0.81033383  0.07365151     0.08400
H1448       H  0.78604804  0.80982924  0.03914360     0.05100
C1449       C  0.19099310  0.84559161  0.07033103    -0.20700
C1450       C  0.22967219  0.84223527  0.06051216    -0.07200
C1451       C  0.23610957  0.82573689  0.03731239     0.13600
C1452       C  0.20335192  0.81266552  0.02455444    -0.20700
C1453       C  0.16398298  0.81641564  0.03398911    -0.07200
C1454       C  0.15793825  0.83385449  0.05714175     0.13600
C1455       C  0.11731339  0.84082838  0.06844842    -0.24100
H1456       H  0.18660746  0.85831110  0.08823050     0.14900
H1457       H  0.20914201  0.79982267  0.50604954     0.14900
C1458       C  0.27729149  0.82259839  0.02565178    -0.24000
H1459       H  0.11914805  0.85523265  0.08620776     0.05200
H1460       H  0.10248227  0.82006844  0.07460255     0.08400
H1461       H  0.09896552  0.85294752  0.05371404     0.08400
H1462       H  0.29723787  0.81098991  0.03976625     0.08400
H1463       H  0.28975315  0.84485171  0.02128227     0.08400
H1464       H  0.27715303  0.81015359  0.50562545     0.05100
C1465       C  0.21240568  0.66533172  0.39126247    -0.20700
C1466       C  0.19883887  0.65826947  0.36591308    -0.07200
C1467       C  0.15912588  0.66482984  0.35870628     0.13600
C1468       C  0.13339847  0.67729349  0.37747243    -0.20700
C1469       C  0.14661141  0.68399129  0.40310743    -0.07200
C1470       C  0.18678997  0.67778224  0.41012455     0.13600
C1471       C  0.20266409  0.68284350  0.43761999    -0.24100
H1472       H  0.24299554  0.66008245  0.39654923     0.14900
H1473       H  0.10291555  0.68237004  0.37179515     0.14900
C1474       C  0.14317447  0.65951910  0.33134561    -0.24000
H1475       H  0.23350320  0.67408621  0.43993410     0.05200
H1476       H  0.18342751  0.67133195  0.45220624     0.08400
H1477       H  0.20371974  0.70692902  0.44204966     0.08400
H1478       H  0.11800332  0.64357338  0.33225695     0.08400
H1479       H  0.16615483  0.65074039  0.31765309     0.08400
H1480       H  0.13205021  0.68077022  0.32303118     0.05100
C1481       C  0.13930761  0.56401686  0.37476236    -0.20700
C1482       C  0.14692867  0.56506988  0.40196507    -0.07200
C1483       C  0.18050731  0.58055125  0.41153513     0.13600
C1484       C  0.20633965  0.59401023  0.39352784    -0.20700
C1485       C  0.19844482  0.59338421  0.36638700    -0.07200
C1486       C  0.16496437  0.57786092  0.35675828     0.13600
C1487       C  0.15647687  0.57569412  0.32763427    -0.24100
H1488       H  0.11346422  0.55200654  0.36760582     0.14900
H1489       H  0.23256551  0.60553941  0.40065672     0.14900
C1490       C  0.18814622  0.58414642  0.44066459    -0.24000
H1491       H  0.12852342  0.56326465  0.32363988     0.05200
H1492       H  0.18137305  0.56397359  0.31758716     0.08400
H1493       H  0.15328183  0.59812013  0.31901506     0.08400
H1494       H  0.19402679  0.56223126  0.44977534     0.08400
H1495       H  0.16176485  0.59459420  0.45021274     0.08400
H1496       H  0.21443756  0.59848306  0.44455061     0.05100
C1497       C  0.69396897  0.91303674  0.13146150    -0.20700
C1498       C  0.73001860  0.90977720  0.14497651    -0.07200
C1499       C  0.73349304  0.92008915  0.17107240     0.13600
C1500       C  0.69989783  0.93239166  0.18352146    -0.20700
C1501       C  0.66285407  0.93476247  0.17040917    -0.07200
C1502       C  0.66027511  0.92523066  0.14373792     0.13600
C1503       C  0.62272599  0.92802624  0.12767163    -0.24100
H1504       H  0.69208187  0.90538000  0.11122526     0.14900
H1505       H  0.70262254  0.93994695  0.20374605     0.14900
C1506       C  0.77260917  0.91824667  0.18566340    -0.24000
H1507       H  0.62725241  0.92097462  0.10687496     0.05200
H1508       H  0.61282098  0.95152202  0.12740087     0.08400
H1509       H  0.59941580  0.91345611  0.13609334     0.08400
H1510       H  0.79560394  0.93119146  0.17493441     0.08400
H1511       H  0.78265569  0.89487849  0.18710251     0.08400
H1512       H  0.77013882  0.92730904  0.20598593     0.05100
C1513       C  0.33983708  0.90606733  0.14759450    -0.20700
C1514       C  0.34652599  0.90671726  0.12035429    -0.07200
C1515       C  0.37920943  0.92260503  0.11002711     0.13600
C1516       C  0.40551395  0.93666812  0.12749350    -0.20700
C1517       C  0.39895750  0.93580936  0.15480358    -0.07200
C1518       C  0.36562978  0.92050098  0.16501223     0.13600
C1519       C  0.35773802  0.91857136  0.19421630    -0.24100
H1520       H  0.31435675  0.89406228  0.15522435     0.14900
H1521       H  0.43103581  0.94865712  0.11984736     0.14900
C1522       C  0.38653028  0.92447828  0.08074396    -0.24000
H1523       H  0.33164557  0.90425584  0.19866314     0.05200
H1524       H  0.35112692  0.94097455  0.20210417     0.08400
H1525       H  0.38418602  0.90909963  0.20443157     0.08400
H1526       H  0.36108675  0.93584588  0.07099258     0.08400
H1527       H  0.38987810  0.90189163  0.07231090     0.08400
H1528       H  0.41404512  0.93718781  0.07619074     0.05100
C1529       C  0.31646889  0.59255415  0.27927417    -0.20700
C1530       C  0.31503063  0.59195000  0.30684048    -0.07200
C1531       C  0.34592139  0.57803841  0.32124825     0.13600
C1532       C  0.37844132  0.56588113  0.30755984    -0.20700
C1533       C  0.38018274  0.56691152  0.27992685    -0.07200
C1534       C  0.34877500  0.58033096  0.26557298     0.13600
C1535       C  0.34987727  0.58298083  0.23593603    -0.24100
H1536       H  0.29253320  0.60322996  0.26848045     0.14900
H1537       H  0.40234710  0.55516261  0.31841281     0.14900
C1538       C  0.34491754  0.57635159  0.35095694    -0.24000
H1539       H  0.32424604  0.59609807  0.22829530     0.05200
H1540       H  0.34834813  0.56068024  0.22677653     0.08400
H1541       H  0.37778807  0.59426272  0.22975524     0.08400
H1542       H  0.31880306  0.56311437  0.35740304     0.08400
H1543       H  0.34270201  0.59891790  0.35957349     0.08400
H1544       H  0.37220149  0.56559636  0.35898689     0.05100
C1545       C  0.66415502  0.82304806  0.14721337    -0.20700
C1546       C  0.66811328  0.81787965  0.17440204    -0.07200
C1547       C  0.70392730  0.82615521  0.18738038     0.13600
C1548       C  0.73434302  0.83973011  0.17283653    -0.20700
C1549       C  0.72987285  0.84528733  0.14587397    -0.07200
C1550       C  0.69469395  0.83646419  0.13272758     0.13600
C1551       C  0.68830302  0.84094017  0.10354682    -0.24100
H1552       H  0.63713798  0.81629871  0.13707219     0.14900
H1553       H  0.76181048  0.84611024  0.18254780     0.14900
C1554       C  0.71013121  0.82165560  0.21656744    -0.24000
H1555       H  0.68396080  0.81907711  0.09387227     0.05200
H1556       H  0.71369904  0.85210530  0.09371008     0.08400
H1557       H  0.66117620  0.85469435  0.10035585     0.08400
H1558       H  0.71139591  0.79762081  0.22113957     0.08400
H1559       H  0.68549424  0.83238390  0.22772944     0.08400
H1560       H  0.73865647  0.83152463  0.22345385     0.05100
C1561       C  0.36429957  0.81425340  0.15980619    -0.20700
C1562       C  0.40536512  0.81646332  0.15392934    -0.07200
C1563       C  0.41698597  0.83170520  0.13058683     0.13600
C1564       C  0.38761240  0.84367587  0.11407269    -0.20700
C1565       C  0.34712345  0.84175800  0.12035430    -0.07200
C1566       C  0.33512175  0.82677283  0.14338688     0.13600
C1567       C  0.29171572  0.82460218  0.15105719    -0.24100
H1568       H  0.35475719  0.80295181  0.17756733     0.14900
H1569       H  0.39626704  0.85529922  0.09627876     0.14900
C1570       C  0.45985031  0.83563957  0.12242253    -0.24000
H1571       H  0.28780305  0.81308463  0.17024120     0.05200
H1572       H  0.27504226  0.81189783  0.13590772     0.08400
H1573       H  0.27851319  0.84711291  0.15286597     0.08400
H1574       H  0.47389032  0.81358567  0.11962924     0.08400
H1575       H  0.47600593  0.84882583  0.13751055     0.08400
H1576       H  0.46264304  0.84778164  0.10344968     0.05100
C1577       C  0.34672996  0.68353370  0.27062654    -0.20700
C1578       C  0.38481230  0.68209479  0.28252776    -0.07600
C1579       C  0.38853745  0.66743415  0.30726519     0.13600
C1580       C  0.35456478  0.65525843  0.31915207    -0.20700
C1581       C  0.31711559  0.65654630  0.30703584    -0.07200
C1582       C  0.31295685  0.67093035  0.28255649     0.13600
C1583       C  0.27304443  0.67275189  0.26892090    -0.24100
H1584       H  0.34322562  0.69443587  0.25172303     0.14900
H1585       H  0.35721902  0.64428270  0.33806309     0.14900
C1586       C  0.42754333  0.66475386  0.32188677    -0.24000
H1587       H  0.27518966  0.68436231  0.24965575     0.05200
H1588       H  0.25158095  0.68512427  0.28149830     0.08400
H1589       H  0.26123692  0.65016352  0.26524431     0.08400
H1590       H  0.43903054  0.68719757  0.32639032     0.08400
H1591       H  0.44942829  0.65191042  0.31001374     0.08400
H1592       H  0.42411115  0.65294950  0.34098087     0.05100
C1593       C  0.85963925  0.59435853  0.38332462    -0.20700
C1594       C  0.82108943  0.59149000  0.39338269    -0.07200
C1595       C  0.81462289  0.57502284  0.41655207     0.13600
C1596       C  0.84739553  0.56203970  0.42938484    -0.20700
C1597       C  0.88666658  0.56539706  0.41975743    -0.07200
C1598       C  0.89265173  0.58229610  0.39632925     0.13600
C1599       C  0.93313332  0.58809194  0.38437173    -0.24100
H1600       H  0.86394004  0.60673463  0.36527133     0.14900
H1601       H  0.84214167  0.54944883  0.44723837     0.14900
C1602       C  0.77336350  0.57165145  0.42800981    -0.24000
H1603       H  0.93122035  0.60189570  0.36626459     0.05200
H1604       H  0.94711505  0.56680231  0.37857878     0.08400
H1605       H  0.95225559  0.60035264  0.39854560     0.08400
H1606       H  0.75388761  0.55964522  0.41389788     0.08400
H1607       H  0.76032246  0.59384277  0.43212726     0.08400
H1608       H  0.77382189  0.55891096  0.44674931     0.05100
C1609       C  0.88182778  0.68422237  0.39292142    -0.20700
C1610       C  0.88275880  0.68375416  0.42060269    -0.07200
C1611       C  0.85186514  0.66931684  0.43463943     0.13600
C1612       C  0.82079841  0.65584616  0.42063031    -0.20700
C1613       C  0.81983139  0.65644095  0.39305246    -0.07200
C1614       C  0.85041925  0.67097240  0.37892961     0.13600
C1615       C  0.85034886  0.67207891  0.34918439    -0.24100
H1616       H  0.90555148  0.69528526  0.38224547     0.14900
H1617       H  0.79738720  0.64429274  0.43119036     0.14900
C1618       C  0.85222401  0.66690158  0.46428934    -0.24000
H1619       H  0.87730352  0.68339052  0.34139886     0.05200
H1620       H  0.82375995  0.68447416  0.34213932     0.08400
H1621       H  0.84965450  0.64932781  0.34085648     0.08400
H1622       H  0.84892220  0.68921603  0.47323915     0.08400
H1623       H  0.88062157  0.65654367  0.47091825     0.08400
H1624       H  0.82722674  0.65305370  0.47168302     0.05100
C1625       C  0.66224493  0.59037905  0.34234978    -0.20700
C1626       C  0.70244118  0.59010477  0.33502588    -0.07200
C1627       C  0.71422052  0.57595078  0.31149355     0.13600
C1628       C  0.68497828  0.56341537  0.29520019    -0.20700
C1629       C  0.64414542  0.56432828  0.30195620    -0.07200
C1630       C  0.63286033  0.57767563  0.32628727     0.13600
C1631       C  0.59048765  0.57807202  0.33621056    -0.24100
H1632       H  0.65383539  0.60084963  0.36076601     0.14900
H1633       H  0.69423048  0.55309859  0.27686785     0.14900
C1634       C  0.75747746  0.57450235  0.30329065    -0.24000
H1635       H  0.58805625  0.58841969  0.35605238     0.05200
H1636       H  0.57956153  0.55497641  0.33796444     0.08400
H1637       H  0.57122098  0.59118780  0.32274789     0.08400
H1638       H  0.77487196  0.56166298  0.31802128     0.08400
H1639       H  0.77004301  0.59718069  0.30179762     0.08400
H1640       H  0.76121907  0.56344895  0.28385206     0.05100
C1641       C  0.70868927  0.65477112  0.30724824    -0.20700
C1642       C  0.70190902  0.65485476  0.33448781    -0.07200
C1643       C  0.66796489  0.66920868  0.34495394     0.13600
C1644       C  0.64102949  0.68292361  0.32764348    -0.20700
C1645       C  0.64795511  0.68293263  0.30034954    -0.07200
C1646       C  0.68200736  0.66855652  0.28996442     0.13600
C1647       C  0.68961286  0.66677430  0.26069067    -0.24100
H1648       H  0.73489550  0.64365715  0.29950166     0.14900
H1649       H  0.61482641  0.69407941  0.33541769     0.14900
C1650       C  0.66017828  0.66998334  0.37422620    -0.24000
H1651       H  0.71632624  0.65304810  0.25610427     0.05200
H1652       H  0.69490056  0.68926742  0.25263180     0.08400
H1653       H  0.66351135  0.65661453  0.25066501     0.08400
H1654       H  0.68491844  0.68168027  0.38438926     0.08400
H1655       H  0.65801426  0.64710707  0.38209816     0.08400
H1656       H  0.63189622  0.68177512  0.37893502     0.05100
C1657       C  0.72765287  0.63795447  0.85376575     0.01900
C1658       C  0.72867122  0.60664731  0.85340432     0.01900
C1659       C  0.75760554  0.59155987  0.86805573    -0.18600
C1660       C  0.78644850  0.60731373  0.88219874     0.01900
C1661       C  0.78621400  0.63867612  0.88184089     0.01900
C1662       C  0.75621841  0.65373149  0.86810838    -0.18600
H1663       H  0.75591045  0.67777866  0.86782258     0.03900
H1664       H  0.75854560  0.56752309  0.86768246     0.03900
Zr1665     Zr  0.53336496  0.79265166  0.69322047     2.17500
O1666       O  0.54903293  0.80037749  0.64682962    -0.51700
O1667       O  0.52903211  0.84457553  0.70604819    -0.74900
O1668       O  0.47279225  0.80791496  0.67050430    -0.81700
O1669       O  0.64446970  0.78117834  0.70530678    -0.83400
O1670       O  0.42106492  0.78291287  0.68866899    -0.79000
O1671       O  0.60029330  0.80788642  0.68098154    -0.90700
O1672       O  0.52068511  0.84560664  0.75054180    -0.76600
O1673       O  0.48448668  0.79442432  0.72728157    -0.86100
O1674       O  0.56936952  0.79396000  0.73363659    -0.85800
O1675       O  0.49417602  0.74848700  0.68735451    -0.72600
O1676       O  0.57242397  0.74798355  0.69363705    -0.84700
Zr1677     Zr  0.52017971  0.70664139  0.76442342     2.26400
Zr1678     Zr  0.44645682  0.74995571  0.72253351     2.06300
Zr1679     Zr  0.60728380  0.74911140  0.73462523     2.10000
Zr1680     Zr  0.52069661  0.79532818  0.76754947     1.78800
O1681       O  0.65904214  0.71996066  0.71297127    -0.93500
O1682       O  0.46052885  0.81826981  0.78545866    -0.41300
O1683       O  0.55959691  0.75068152  0.76966825    -0.78000
O1684       O  0.48098597  0.75139842  0.76386326    -0.96600
O1685       O  0.48444192  0.70518763  0.72388576    -0.90000
O1686       O  0.56875838  0.70503835  0.73015839    -0.92800
C1687       C  0.52433953  0.85832004  0.72803122     1.01000
C1688       C  0.63598687  0.80060370  0.68771089     1.13900
C1689       C  0.43553042  0.80157478  0.67211534     1.04700
O1690       O  0.39078878  0.77677877  0.74234999    -0.94900
O1691       O  0.40907536  0.71805637  0.75193215    -0.90700
O1692       O  0.45289522  0.69165193  0.77679341    -0.83800
C1693       C  0.41725092  0.69894202  0.76992088     1.11300
O1694       O  0.54353916  0.70984900  0.64248220    -0.96900
Zr1695     Zr  0.53300763  0.70387888  0.68980924     1.88900
O1696       O  0.52048864  0.65460937  0.75144408    -0.73600
O1697       O  0.40321161  0.71965914  0.69488858    -0.52800
O1698       O  0.47682815  0.68255771  0.66590178    -0.97500
O1699       O  0.59256614  0.67867753  0.67331560    -0.54700
O1700       O  0.52857772  0.65365232  0.70688430    -0.74100
C1701       C  0.52412977  0.64088855  0.72933822     0.98300
O1702       O  0.51345773  0.70107898  0.81211651    -0.62900
O1703       O  0.65295864  0.77512677  0.76396319    -0.57700
O1704       O  0.58151836  0.68981357  0.78530991    -0.94400
O1705       O  0.63320688  0.71576971  0.76763126    -0.92800
O1706       O  0.57613521  0.81953578  0.78994238    -0.93200
O1707       O  0.51661011  0.78988207  0.81527748    -0.92000
C1708       C  0.61866696  0.69646147  0.78342985     1.17100
H1709       H  0.58654735  0.81109972  0.73460939     0.33000
H1710       H  0.46212933  0.75131167  0.77823268     0.43900
H1711       H  0.58560898  0.68774695  0.73171179     0.37400
H1712       H  0.48088804  0.74890283  0.67048476     0.33900
H1713       H  0.47016607  0.83592482  0.79518373     0.25700
H1714       H  0.37662369  0.72920419  0.69622547     0.31600
H1715       H  0.48506062  0.66192290  0.66190976     0.37500
H1716       H  0.56509396  0.83868953  0.79620286     0.32000
H1717       H  0.67994540  0.76948181  0.75772880     0.30900
H1718       H  0.68445691  0.72885547  0.71900893     0.32600
H1719       H  0.60251808  0.66661156  0.68825019     0.31500
H1720       H  0.52570695  0.76933257  0.81870878     0.35500
H1721       H  0.53816624  0.70925019  0.81996060     0.28300
H1722       H  0.54064892  0.82097419  0.64292515     0.32500
H1723       H  0.54080724  0.68975056  0.63479529     0.35300
H1724       H  0.65018136  0.79633566  0.75927412     0.27900
H1725       H  0.49299347  0.71597507  0.81695517     0.40800
H1726       H  0.39513683  0.79780310  0.73754040     0.30900
H1727       H  0.44646903  0.82653207  0.76991678     0.38500
H1728       H  0.61264557  0.69459666  0.67128706     0.30300
H1729       H  0.41198771  0.72362826  0.67658273     0.30400
H1730       H  0.53024285  0.78751987  0.63703810     0.30700
Zr1731     Zr  0.52775606  0.95625435  0.69181843     2.17500
O1732       O  0.52687487  0.94529683  0.64476365    -0.51700
O1733       O  0.52633782  0.90450234  0.70563150    -0.74900
O1734       O  0.59485192  0.94191283  0.67788125    -0.81700
O1735       O  0.41477840  0.96709373  0.68879132    -0.83400
O1736       O  0.63934384  0.96596671  0.70408451    -0.79000
O1737       O  0.46648783  0.94267711  0.66923301    -0.90700
O1738       O  0.51948759  0.90388099  0.75024069    -0.76600
O1739       O  0.56366779  0.95441539  0.73235468    -0.86100
O1740       O  0.47912491  0.95539775  0.72604455    -0.85800
O1741       O  0.56792841  0.50029837  0.69265882    -0.72600
O1742       O  0.48960771  0.50152612  0.68669172    -0.84700
Zr1743     Zr  0.51596332  0.54232992  0.76393190     2.26400
Zr1744     Zr  0.60173563  0.49806435  0.73436597     2.06300
Zr1745     Zr  0.44137635  0.50059486  0.72140702     2.10000
Zr1746     Zr  0.51487360  0.95429810  0.76639554     1.78800
O1747       O  0.39814008  0.53048761  0.69336380    -0.93500
O1748       O  0.56573735  0.93025094  0.79332623    -0.41300
O1749       O  0.47648292  0.99898835  0.76269974    -0.78000
O1750       O  0.55523353  0.99786000  0.76837860    -0.96600
O1751       O  0.56517736  0.54326442  0.73010738    -0.90000
O1752       O  0.48090934  0.54435712  0.72317350    -0.92800
C1753       C  0.52329057  0.89096543  0.72783029     1.01000
C1754       C  0.42925654  0.94875893  0.67199169     1.13900
C1755       C  0.63063287  0.94808166  0.68526393     1.04700
O1756       O  0.64964843  0.96994318  0.75979741    -0.94900
O1757       O  0.62774342  0.52883427  0.76974055    -0.90700
O1758       O  0.57729680  0.55738719  0.78569922    -0.83800
C1759       C  0.61393703  0.54894101  0.78529065     1.11300
O1760       O  0.54071982  0.54033286  0.64209412    -0.96900
Zr1761     Zr  0.53001904  0.54525200  0.68950296     1.88900
O1762       O  0.51920094  0.59445346  0.75131808    -0.73600
O1763       O  0.65446017  0.52836406  0.71531376    -0.52800
O1764       O  0.59303611  0.56802433  0.67671558    -0.97500
O1765       O  0.47742228  0.56936049  0.66396689    -0.54700
O1766       O  0.52734469  0.59543200  0.70676860    -0.74100
C1767       C  0.52346418  0.60818842  0.72928114     0.98300
O1768       O  0.50874679  0.54691141  0.81168573    -0.62900
O1769       O  0.38807461  0.97474125  0.74411569    -0.57700
O1770       O  0.44921830  0.55926080  0.77552308    -0.94400
O1771       O  0.40511126  0.53314162  0.75054524    -0.92800
O1772       O  0.45286442  0.93148768  0.78096548    -0.93200
O1773       O  0.50711168  0.96146861  0.81374822    -0.92000
C1774       C  0.41370038  0.55243021  0.76818736     1.17100
H1775       H  0.46191752  0.93832054  0.72453654     0.33000
H1776       H  0.56874067  0.99790405  0.78521682     0.43900
H1777       H  0.46404639  0.56174051  0.72224263     0.37400
H1778       H  0.58685195  0.50008395  0.67828244     0.33900
H1779       H  0.55262718  0.91221719  0.80030073     0.25700
H1780       H  0.67937702  0.51715954  0.71879494     0.31600
H1781       H  0.58595920  0.58844943  0.67123105     0.37500
H1782       H  0.46120909  0.91250986  0.78913147     0.32000
H1783       H  0.36424526  0.97808884  0.73293694     0.30900
H1784       H  0.37200993  0.52027071  0.69375264     0.32600
H1785       H  0.46059969  0.57984718  0.67706823     0.31500
H1786       H  0.48773298  0.97798657  0.81543205     0.35500
H1787       H  0.48073576  0.54188258  0.81592696     0.28300
H1788       H  0.53721248  0.92478818  0.64314853     0.32500
H1789       H  0.54342208  0.56084481  0.63535989     0.35300
H1790       H  0.39420367  0.95336215  0.74216527     0.27900
H1791       H  0.52399077  0.52979111  0.81865683     0.40800
H1792       H  0.64133483  0.94905531  0.75741034     0.30900
H1793       H  0.58558735  0.92263663  0.78051757     0.38500
H1794       H  0.46045860  0.55289245  0.65757525     0.30300
H1795       H  0.65056345  0.52683124  0.69600013     0.30400
H1796       H  0.54759578  0.95817326  0.63692611     0.30700
C1797       C  0.28271050  0.61053006  0.82033914     0.01900
C1798       C  0.28191067  0.64181532  0.81912722     0.01900
C1799       C  0.25194536  0.65753639  0.83236590    -0.18600
C1800       C  0.22325784  0.64242016  0.84718737     0.01900
C1801       C  0.22393873  0.61111750  0.84822449     0.01900
C1802       C  0.25320349  0.59540531  0.83436606    -0.18600
H1803       H  0.25409133  0.57139428  0.83548846     0.03900
H1804       H  0.25224916  0.68158774  0.83232377     0.03900
Zr1805     Zr  0.01764931  0.70586946  0.94136522     2.17500
O1806       O  0.00671588  0.69745216  0.89437665    -0.51700
O1807       O  0.02147416  0.65356131  0.95308732    -0.74900
O1808       O  0.07931308  0.69187139  0.91909609    -0.81700
O1809       O  0.90607569  0.71486070  0.95555657    -0.83400
O1810       O  0.13027526  0.71862157  0.93661851    -0.79000
O1811       O  0.95039677  0.69100543  0.92879015    -0.90700
O1812       O  0.03069022  0.65218033  0.99747581    -0.76600
O1813       O  0.06781979  0.70489343  0.97465699    -0.86100
O1814       O  0.98312354  0.70313996  0.98234555    -0.85800
O1815       O  0.05516598  0.75096799  0.93622487    -0.72600
O1816       O  0.97629076  0.74944415  0.94339393    -0.84700
Zr1817     Zr  0.02940319  0.79050018  0.51374379     2.26400
Zr1818     Zr  0.10400464  0.75039990  0.97089824     2.06300
Zr1819     Zr  0.94288453  0.74689265  0.98513260     2.10000
Zr1820     Zr  0.03230462  0.70181587  0.51490080     1.78800
O1821       O  0.88802231  0.77555484  0.96646069    -0.93500
O1822       O  0.09514321  0.67951791  0.52899589    -0.41300
O1823       O  0.99188105  0.74560348  0.51851816    -0.78000
O1824       O  0.07023331  0.74665564  0.51247428    -0.96600
O1825       O  0.06370819  0.79390454  0.97300077    -0.90000
O1826       O  0.97921879  0.79183577  0.98026768    -0.92800
C1827       C  0.02631727  0.63961143  0.97492574     1.01000
C1828       C  0.91480033  0.69681943  0.93683642     1.13900
C1829       C  0.11628578  0.69928571  0.92057167     1.04700
O1830       O  0.16094681  0.72305851  0.98841267    -0.94900
O1831       O  0.13994917  0.78232540  0.00164170    -0.90700
O1832       O  0.09546298  0.80751920  0.52576575    -0.83800
C1833       C  0.13147516  0.80102817  0.51937536     1.11300
O1834       O  0.00566637  0.78823591  0.89207818    -0.96900
Zr1835     Zr  0.01412776  0.79431172  0.93957554     1.88900
O1836       O  0.02763044  0.84299340  0.50198679    -0.73600
O1837       O  0.14584334  0.78244091  0.94397281    -0.52800
O1838       O  0.06819550  0.81761808  0.91506593    -0.97500
O1839       O  0.95293231  0.81837162  0.92450500    -0.54700
O1840       O  0.01805443  0.84428500  0.95714569    -0.74100
C1841       C  0.02243126  0.85700099  0.97963751     0.98300
O1842       O  0.03858899  0.79151340  0.56138468    -0.62900
O1843       O  0.90368387  0.71644787  0.51355228    -0.57700
O1844       O  0.96840626  0.80574825  0.53597182    -0.94400
O1845       O  0.91735178  0.77899715  0.51864207    -0.92800
O1846       O  0.97930631  0.67809654  0.54006865    -0.93200
O1847       O  0.04124753  0.70339881  0.56254426    -0.92000
C1848       C  0.93146516  0.79827306  0.53482760     1.17100
H1849       H  0.96666611  0.68560333  0.98327295     0.33000
H1850       H  0.08901043  0.74682268  0.52693803     0.43900
H1851       H  0.96173401  0.80875415  0.98235062     0.37400
H1852       H  0.06816291  0.75117420  0.91921040     0.33900
H1853       H  0.08741987  0.66061763  0.53750407     0.25700
H1854       H  0.17254474  0.77296449  0.94441466     0.31600
H1855       H  0.05764008  0.83729202  0.90983844     0.37500
H1856       H  0.96664964  0.66398903  0.52766176     0.32000
H1857       H  0.87571779  0.72246197  0.51009389     0.30900
H1858       H  0.86395650  0.76836396  0.97579878     0.32600
H1859       H  0.94284707  0.82967078  0.93988986     0.31500
H1860       H  0.03832953  0.72461483  0.56720241     0.35500
H1861       H  0.01717204  0.77854223  0.56816874     0.28300
H1862       H  0.01712479  0.67725551  0.89081871     0.32500
H1863       H  0.00359902  0.80856610  0.88481483     0.35300
H1864       H  0.90570667  0.69605739  0.50642838     0.27900
H1865       H  0.06301085  0.77959992  0.56447608     0.40800
H1866       H  0.15709459  0.72311176  0.00777763     0.30900
H1867       H  0.10852670  0.67336217  0.51244655     0.38500
H1868       H  0.93362238  0.80195976  0.92229659     0.30300
H1869       H  0.13633156  0.77939284  0.92567941     0.30400
H1870       H  0.02543385  0.71097032  0.88525267     0.30700
Zr1871     Zr  0.03383133  0.95604783  0.51312557     2.17500
O1872       O  0.04958725  0.95053275  0.55978409    -0.51700
O1873       O  0.02986438  0.90360717  0.50164360    -0.74900
O1874       O  0.97321212  0.94228901  0.53656053    -0.81700
O1875       O  0.14399014  0.96510476  0.99907266    -0.83400
O1876       O  0.92198032  0.96840522  0.51869346    -0.79000
O1877       O  0.10072365  0.94141039  0.52591480    -0.90700
O1878       O  0.01968827  0.90223777  0.95680664    -0.76600
O1879       O  0.98332067  0.95449764  0.97907482    -0.86100
O1880       O  0.06786755  0.95311146  0.97190810    -0.85800
O1881       O  0.99540840  0.50132843  0.51778158    -0.72600
O1882       O  0.07427041  0.50019256  0.51049915    -0.84700
Zr1883     Zr  0.02109234  0.54069229  0.94039295     2.26400
Zr1884     Zr  0.94646854  0.99963420  0.98299608     2.06300
Zr1885     Zr  0.10767528  0.99687402  0.96908405     2.10000
Zr1886     Zr  0.01839303  0.95200839  0.93851609     1.78800
O1887       O  0.16477747  0.52431000  0.98759125    -0.93500
O1888       O  0.95721754  0.92799547  0.92372003    -0.41300
O1889       O  0.05902996  0.99565168  0.93476382    -0.78000
O1890       O  0.98078530  0.99710606  0.94167264    -0.96600
O1891       O  0.98613018  0.54305213  0.98119467    -0.90000
O1892       O  0.07054050  0.54231049  0.97394875    -0.92800
C1893       C  0.02329279  0.88971139  0.97943167     1.01000
C1894       C  0.13614728  0.94673727  0.51752350     1.13900
C1895       C  0.93614484  0.94953794  0.53525982     1.04700
O1896       O  0.89343392  0.96966176  0.96382010    -0.94900
O1897       O  0.90993273  0.53182803  0.95413638    -0.90700
O1898       O  0.95444829  0.55668965  0.92885859    -0.83800
C1899       C  0.91866975  0.55048288  0.93583169     1.11300
O1900       O  0.04451397  0.54020788  0.56177125    -0.96900
Zr1901     Zr  0.03581414  0.54480499  0.51417990     1.88900
O1902       O  0.02247949  0.59305751  0.95272858    -0.73600
O1903       O  0.90125417  0.53081392  0.50802957    -0.52800
O1904       O  0.98044303  0.56881082  0.53704801    -0.97500
O1905       O  0.09699281  0.56805903  0.53000806    -0.54700
O1906       O  0.03170818  0.59428468  0.99719725    -0.74100
C1907       C  0.02683725  0.60691415  0.97474152     0.98300
O1908       O  0.01288914  0.54356854  0.89261386    -0.62900
O1909       O  0.14812185  0.96690827  0.93921381    -0.57700
O1910       O  0.08128886  0.55725762  0.91828888    -0.94400
O1911       O  0.13358567  0.53146281  0.93562276    -0.92800
O1912       O  0.07241072  0.92793738  0.91440455    -0.93200
O1913       O  0.00573766  0.95571385  0.89129774    -0.92000
C1914       C  0.11852837  0.55072168  0.91984371     1.17100
H1915       H  0.08438037  0.93553353  0.97112577     0.33000
H1916       H  0.96191121  0.99750622  0.92726104     0.43900
H1917       H  0.08754768  0.55944197  0.97201418     0.37400
H1918       H  0.98236210  0.50172802  0.53476876     0.33900
H1919       H  0.96614148  0.90915551  0.91552808     0.25700
H1920       H  0.87626350  0.51917937  0.50906257     0.31600
H1921       H  0.98971407  0.58924996  0.54068996     0.37500
H1922       H  0.06098486  0.90887477  0.90833400     0.32000
H1923       H  0.17606056  0.97198328  0.94368520     0.30900
H1924       H  0.18860660  0.51416051  0.98029670     0.32600
H1925       H  0.10655092  0.58041965  0.51517497     0.31500
H1926       H  0.01228310  0.97650509  0.88681574     0.35500
H1927       H  0.03710793  0.53435850  0.88492561     0.28300
H1928       H  0.04081082  0.93031085  0.56459047     0.32500
H1929       H  0.04364918  0.56073183  0.56873976     0.35300
H1930       H  0.14484890  0.94622081  0.94534727     0.27900
H1931       H  0.99167336  0.52895386  0.88869424     0.40800
H1932       H  0.89763469  0.97094570  0.94452236     0.30900
H1933       H  0.94356089  0.92180516  0.94013497     0.38500
H1934       H  0.11658210  0.55161380  0.53109083     0.30300
H1935       H  0.91196055  0.53068333  0.52623489     0.30400
H1936       H  0.03109909  0.96416545  0.56905989     0.30700
C1937       C  0.32001965  0.85749665  0.60302768     0.01900
C1938       C  0.32014699  0.88882504  0.60298948     0.01900
C1939       C  0.29188559  0.90438990  0.58831066    -0.18600
C1940       C  0.26297527  0.88919065  0.57395017     0.01900
C1941       C  0.26322442  0.85785675  0.57333318     0.01900
C1942       C  0.29204446  0.84221274  0.58769902    -0.18600
H1943       H  0.29183386  0.81817129  0.58766994     0.03900
H1944       H  0.29162721  0.92843988  0.58872429     0.03900
C1945       C  0.76371039  0.89191646  0.63287386     0.01900
C1946       C  0.76199644  0.86069345  0.63146781     0.01900
C1947       C  0.78969946  0.84516581  0.61614862    -0.18600
C1948       C  0.81835230  0.86037290  0.60140263     0.01900
C1949       C  0.81998651  0.89174913  0.60259693     0.01900
C1950       C  0.79292061  0.90718748  0.61864779    -0.18600
H1951       H  0.79379678  0.93121088  0.61944573     0.03900
H1952       H  0.78824919  0.82116231  0.61512678     0.03900
C1953       C  0.86610541  0.93758188  0.54782786    -0.20700
C1954       C  0.90715931  0.93535482  0.55376699    -0.07200
C1955       C  0.91868602  0.92038899  0.57728702     0.13600
C1956       C  0.88926963  0.90779126  0.59342540    -0.20700
C1957       C  0.84889699  0.90869917  0.58649680    -0.07200
C1958       C  0.83692564  0.92471954  0.56397302     0.13600
C1959       C  0.79344806  0.92859879  0.55698870    -0.24100
H1960       H  0.85652431  0.94932275  0.53028426     0.14900
H1961       H  0.89784703  0.89675194  0.61153253     0.14900
C1962       C  0.96149367  0.91752474  0.58601233    -0.24000
H1963       H  0.78953430  0.94090516  0.53818957     0.05200
H1964       H  0.77802726  0.94132740  0.57272985     0.08400
H1965       H  0.77877980  0.90679564  0.55483385     0.08400
H1966       H  0.97470263  0.93990213  0.58833214     0.08400
H1967       H  0.97852238  0.90415716  0.57144515     0.08400
H1968       H  0.96423885  0.90603831  0.60531212     0.05100
C1969       C  0.16997346  0.93383995  0.55909960    -0.20700
C1970       C  0.16950655  0.93254462  0.53145389    -0.07200
C1971       C  0.20087602  0.91813638  0.51782175     0.13600
C1972       C  0.23184619  0.90516922  0.53228827    -0.20700
C1973       C  0.23209315  0.90625805  0.55987137    -0.07200
C1974       C  0.20120773  0.92110018  0.57354415     0.13600
C1975       C  0.20068099  0.92306953  0.60326088    -0.24100
H1976       H  0.14596752  0.94514798  0.56939568     0.14900
H1977       H  0.25569655  0.89360038  0.52210130     0.14900
C1978       C  0.19956126  0.91484391  0.98823554    -0.24000
H1979       H  0.17337893  0.93444043  0.61058604     0.05200
H1980       H  0.22686416  0.93586317  0.61027488     0.08400
H1981       H  0.20159685  0.90057228  0.61207119     0.08400
H1982       H  0.20183927  0.93694885  0.97881878     0.08400
H1983       H  0.17163391  0.90374161  0.98181299     0.08400
H1984       H  0.22519218  0.90130719  0.98116955     0.05100
C1985       C  0.88472753  0.83773098  0.59407837    -0.20700
C1986       C  0.84611191  0.84299070  0.58472521    -0.07200
C1987       C  0.83452648  0.83144722  0.56003444     0.13600
C1988       C  0.86296485  0.81681942  0.54436910    -0.20700
C1989       C  0.90269965  0.81319444  0.55289439    -0.07200
C1990       C  0.91340800  0.82340283  0.57845050     0.13600
C1991       C  0.95433590  0.81861570  0.59000346    -0.24100
H1992       H  0.89253851  0.84517973  0.61374185     0.14900
H1993       H  0.85416407  0.80856810  0.52514032     0.14900
C1994       C  0.79222850  0.83434367  0.55024716    -0.24000
H1995       H  0.95632068  0.82678148  0.61064542     0.05200
H1996       H  0.97702608  0.83090023  0.57844605     0.08400
H1997       H  0.96114465  0.79454062  0.59026599     0.08400
H1998       H  0.78399324  0.85800914  0.54858607     0.08400
H1999       H  0.77148779  0.82327303  0.56416562     0.08400
H2000       H  0.78831549  0.82398455  0.53052855     0.05100
C2001       C  0.19221060  0.84473022  0.57010487    -0.20700
C2002       C  0.23076374  0.84151331  0.56003000    -0.07200
C2003       C  0.23691795  0.82541311  0.53658537     0.13600
C2004       C  0.20403070  0.81242378  0.52394971    -0.20700
C2005       C  0.16479624  0.81601647  0.53367939    -0.07200
C2006       C  0.15899700  0.83323779  0.55695974     0.13600
C2007       C  0.11850438  0.84020274  0.56846234    -0.24100
H2008       H  0.18804253  0.85717308  0.58817121     0.14900
H2009       H  0.20867333  0.79985022  0.00680260     0.14900
C2010       C  0.27787430  0.82266589  0.52450777    -0.24000
H2011       H  0.12053364  0.85463953  0.58619080     0.05200
H2012       H  0.10382767  0.81944056  0.57473661     0.08400
H2013       H  0.09994996  0.85228312  0.55381459     0.08400
H2014       H  0.29816566  0.81079927  0.53823000     0.08400
H2015       H  0.29013714  0.84504701  0.52042539     0.08400
H2016       H  0.27688810  0.80964504  0.00700365     0.05100
C2017       C  0.21011093  0.66661571  0.88967232    -0.20700
C2018       C  0.19622235  0.65950361  0.86443525    -0.07200
C2019       C  0.15645074  0.66608979  0.85738612     0.13600
C2020       C  0.13096920  0.67863358  0.87628138    -0.20700
C2021       C  0.14451854  0.68526200  0.90186766    -0.07200
C2022       C  0.18472887  0.67895012  0.90868079     0.13600
C2023       C  0.20082890  0.68358773  0.93616731    -0.24100
H2024       H  0.24076603  0.66136046  0.89479786     0.14900
H2025       H  0.10041192  0.68373062  0.87079460     0.14900
C2026       C  0.14021285  0.66069340  0.83011235    -0.24000
H2027       H  0.23167897  0.67477771  0.93827552     0.05200
H2028       H  0.18169621  0.67185180  0.95067068     0.08400
H2029       H  0.20194668  0.70759755  0.94087216     0.08400
H2030       H  0.11499653  0.64479563  0.83117488     0.08400
H2031       H  0.16305969  0.65181399  0.81637153     0.08400
H2032       H  0.12908807  0.68192818  0.82176561     0.05100
C2033       C  0.13791059  0.56544331  0.87469049    -0.20700
C2034       C  0.14592844  0.56619045  0.90186786    -0.07200
C2035       C  0.17991608  0.58139195  0.91126604     0.13600
C2036       C  0.20531917  0.59521169  0.89316246    -0.20700
C2037       C  0.19709748  0.59469481  0.86606251    -0.07200
C2038       C  0.16348224  0.57925259  0.85658794     0.13600
C2039       C  0.15492421  0.57701098  0.82748071    -0.24100
H2040       H  0.11194035  0.55353889  0.86760290     0.14900
H2041       H  0.23165458  0.60670858  0.90016617     0.14900
C2042       C  0.18875801  0.58402162  0.94032817    -0.24000
H2043       H  0.12696317  0.56457559  0.82354006     0.05200
H2044       H  0.17983457  0.56527579  0.81745004     0.08400
H2045       H  0.15173496  0.59940925  0.81881325     0.08400
H2046       H  0.19514501  0.56180881  0.94870739     0.08400
H2047       H  0.16277150  0.59405162  0.95065841     0.08400
H2048       H  0.21517157  0.59826883  0.94411798     0.05100
C2049       C  0.69822672  0.91658732  0.63160629    -0.20700
C2050       C  0.73190823  0.90881439  0.64634163    -0.07200
C2051       C  0.73329945  0.91524325  0.67351498     0.13600
C2052       C  0.69951123  0.92755509  0.68572865    -0.20700
C2053       C  0.66468604  0.93407996  0.67124646    -0.07200
C2054       C  0.66451744  0.92905468  0.64363618     0.13600
C2055       C  0.62946076  0.93705053  0.62649258    -0.24100
H2056       H  0.69806827  0.91220213  0.61057222     0.14900
H2057       H  0.70031836  0.93209693  0.70672990     0.14900
C2058       C  0.77064447  0.90993547  0.68939712    -0.24000
H2059       H  0.63608226  0.93379407  0.60520958     0.05200
H2060       H  0.62135659  0.96072199  0.62943994     0.08400
H2061       H  0.60399682  0.92247835  0.63141876     0.08400
H2062       H  0.79544779  0.92328647  0.68109855     0.08400
H2063       H  0.77917869  0.88624555  0.68877967     0.08400
H2064       H  0.76662097  0.91635826  0.71039554     0.05100
C2065       C  0.34181827  0.90386120  0.64737105    -0.20700
C2066       C  0.34750071  0.90561194  0.62008101    -0.07200
C2067       C  0.37994382  0.92171492  0.60971558     0.13600
C2068       C  0.40652672  0.93550279  0.62717545    -0.20700
C2069       C  0.40090388  0.93363511  0.65454830    -0.07200
C2070       C  0.36836030  0.91745173  0.66480638     0.13600
C2071       C  0.36229733  0.91346465  0.69403875    -0.24100
H2072       H  0.31677307  0.89137597  0.65502604     0.14900
H2073       H  0.43161057  0.94795440  0.61948864     0.14900
C2074       C  0.38686683  0.92388353  0.58039791    -0.24000
H2075       H  0.33692436  0.89840581  0.69837439     0.05200
H2076       H  0.35558763  0.93515710  0.70331972     0.08400
H2077       H  0.38960290  0.90375340  0.70302341     0.08400
H2078       H  0.36125237  0.93526888  0.57086344     0.08400
H2079       H  0.39018079  0.90137705  0.57177790     0.08400
H2080       H  0.41429870  0.93665962  0.57578487     0.05100
C2081       C  0.31595098  0.59248023  0.78000153    -0.20700
C2082       C  0.31513273  0.59359540  0.80756248    -0.07200
C2083       C  0.34654188  0.58081306  0.82229100     0.13600
C2084       C  0.37897034  0.56811718  0.80887944    -0.20700
C2085       C  0.37997712  0.56731604  0.78121958    -0.07200
C2086       C  0.34800169  0.57953988  0.76656913     0.13600
C2087       C  0.34793109  0.57984473  0.73682211    -0.24100
H2088       H  0.29140368  0.60191945  0.76894773     0.14900
H2089       H  0.40326769  0.55826097  0.81999441     0.14900
C2090       C  0.34595932  0.58061398  0.85202662    -0.24000
H2091       H  0.32209708  0.59245924  0.72882403     0.05200
H2092       H  0.34578660  0.55687197  0.72914959     0.08400
H2093       H  0.37565929  0.59043454  0.72942860     0.08400
H2094       H  0.31995098  0.56769230  0.85914439     0.08400
H2095       H  0.34381145  0.60359587  0.85971521     0.08400
H2096       H  0.37337471  0.57029010  0.86030785     0.05100
C2097       C  0.66318504  0.82408672  0.64735054    -0.20700
C2098       C  0.66941630  0.81521261  0.67363385    -0.07200
C2099       C  0.70712947  0.82049609  0.68551919     0.13600
C2100       C  0.73713852  0.83440408  0.67080898    -0.20700
C2101       C  0.73021149  0.84399950  0.64499252    -0.07200
C2102       C  0.69308017  0.83835280  0.63287557     0.13600
C2103       C  0.68404151  0.84693305  0.60475053    -0.24100
H2104       H  0.63475954  0.81974406  0.63787490     0.14900
H2105       H  0.76622121  0.83798743  0.67956222     0.14900
C2106       C  0.71589002  0.81268306  0.71385310    -0.24000
H2107       H  0.67640967  0.82676547  0.59323396     0.05200
H2108       H  0.70946246  0.85792398  0.59477577     0.08400
H2109       H  0.65814772  0.86236557  0.60437214     0.08400
H2110       H  0.71555409  0.78826234  0.71646269     0.08400
H2111       H  0.69343220  0.82327804  0.72695052     0.08400
H2112       H  0.74581737  0.82058973  0.72013129     0.05100
C2113       C  0.36560712  0.81335277  0.65904293    -0.20700
C2114       C  0.40677400  0.81620345  0.65370399    -0.07200
C2115       C  0.41864549  0.83206637  0.63075381     0.13600
C2116       C  0.38939942  0.84369075  0.61392272    -0.20700
C2117       C  0.34874442  0.84086406  0.61953583    -0.07200
C2118       C  0.33655631  0.82552272  0.64233958     0.13600
C2119       C  0.29303317  0.82264343  0.64952707    -0.24100
H2120       H  0.35582345  0.80173553  0.67658156     0.14900
H2121       H  0.39825961  0.85576236  0.59641870     0.14900
C2122       C  0.46164015  0.83702948  0.62334353    -0.24000
H2123       H  0.28895176  0.81090104  0.66858755     0.05200
H2124       H  0.27707909  0.80981388  0.63412746     0.08400
H2125       H  0.27918627  0.84494203  0.65134920     0.08400
H2126       H  0.47642064  0.81532602  0.62009367     0.08400
H2127       H  0.47696173  0.84987556  0.63904325     0.08400
H2128       H  0.46465687  0.84991607  0.60478176     0.05100
C2129       C  0.34608855  0.68305214  0.76975941    -0.20700
C2130       C  0.38281017  0.68453800  0.78333783    -0.07600
C2131       C  0.38484943  0.67345683  0.80953472     0.13600
C2132       C  0.35105578  0.66024753  0.82071369    -0.20700
C2133       C  0.31511668  0.65825548  0.80682343    -0.07200
C2134       C  0.31210150  0.67044738  0.78136382     0.13600
C2135       C  0.27303706  0.67041759  0.76659727    -0.24100
H2136       H  0.34383336  0.69182843  0.74991638     0.14900
H2137       H  0.35253315  0.65144731  0.84056725     0.14900
C2138       C  0.42155420  0.67642475  0.82648699    -0.24000
H2139       H  0.27598848  0.68071454  0.74679861     0.05200
H2140       H  0.25041115  0.68320867  0.77790206     0.08400
H2141       H  0.26209811  0.64744790  0.76390173     0.08400
H2142       H  0.42956251  0.70019981  0.82819121     0.08400
H2143       H  0.44659740  0.66343074  0.81797092     0.08400
H2144       H  0.41656618  0.66795503  0.84679362     0.05100
C2145       C  0.85745589  0.59400153  0.88512663    -0.20700
C2146       C  0.81903033  0.59091288  0.89531692    -0.07200
C2147       C  0.81291573  0.57451802  0.91856331     0.13600
C2148       C  0.84592107  0.56171535  0.93129967    -0.20700
C2149       C  0.88510023  0.56529210  0.92154062    -0.07200
C2150       C  0.89069164  0.58217296  0.89804952     0.13600
C2151       C  0.93097773  0.58817050  0.88590494    -0.24100
H2152       H  0.86146712  0.60646571  0.86707197     0.14900
H2153       H  0.84092403  0.54911655  0.94918090     0.14900
C2154       C  0.77179236  0.57115191  0.93023815    -0.24000
H2155       H  0.92877135  0.60208694  0.86788128     0.05200
H2156       H  0.94493640  0.56695065  0.87990234     0.08400
H2157       H  0.95022738  0.60038548  0.90003448     0.08400
H2158       H  0.75213053  0.55917713  0.91621664     0.08400
H2159       H  0.75880850  0.59334458  0.93443031     0.08400
H2160       H  0.77247385  0.55840994  0.94897202     0.05100
C2161       C  0.87972450  0.68352342  0.89556848    -0.20700
C2162       C  0.88128162  0.68220109  0.92319861    -0.07200
C2163       C  0.85059563  0.66748531  0.93717341     0.13600
C2164       C  0.81926981  0.65435723  0.92312584    -0.20700
C2165       C  0.81766207  0.65576896  0.89556308    -0.07200
C2166       C  0.84795990  0.67079245  0.88154767     0.13600
C2167       C  0.84727109  0.67298901  0.85186961    -0.24100
H2168       H  0.90319260  0.69496575  0.88495937     0.14900
H2169       H  0.79607165  0.64253136  0.93364221     0.14900
C2170       C  0.85124658  0.66469422  0.96677524    -0.24000
H2171       H  0.87412523  0.68450956  0.84416255     0.05200
H2172       H  0.82062555  0.68573475  0.84543702     0.08400
H2173       H  0.84630185  0.65052813  0.84294124     0.08400
H2174       H  0.84790264  0.68691432  0.97587937     0.08400
H2175       H  0.87976115  0.65436780  0.97321394     0.08400
H2176       H  0.82636751  0.65070104  0.97413128     0.05100
C2177       C  0.66012270  0.58934411  0.84424627    -0.20700
C2178       C  0.70034489  0.58965340  0.83694923    -0.07200
C2179       C  0.71240064  0.57602658  0.81320728     0.13600
C2180       C  0.68345631  0.56323190  0.79680840    -0.20700
C2181       C  0.64269688  0.56330765  0.80369846    -0.07200
C2182       C  0.63105907  0.57639259  0.82806297     0.13600
C2183       C  0.58858743  0.57628928  0.83782871    -0.24100
H2184       H  0.65143524  0.59953463  0.86273486     0.14900
H2185       H  0.69283939  0.55329046  0.77833830     0.14900
C2186       C  0.75567391  0.57522217  0.80498741    -0.24000
H2187       H  0.58582516  0.58639734  0.85774489     0.05200
H2188       H  0.57799335  0.55308407  0.83931511     0.08400
H2189       H  0.56921624  0.58938106  0.82440704     0.08400
H2190       H  0.77329922  0.56228474  0.81952798     0.08400
H2191       H  0.76786038  0.59802842  0.80385805     0.08400
H2192       H  0.75962305  0.56460393  0.78537653     0.05100
C2193       C  0.70830913  0.65462243  0.80944977    -0.20700
C2194       C  0.70004746  0.65436339  0.83649073    -0.07200
C2195       C  0.66529732  0.66826371  0.84622398     0.13600
C2196       C  0.63865540  0.68131141  0.82830700    -0.20700
C2197       C  0.64678036  0.68134600  0.80113653    -0.07200
C2198       C  0.68214970  0.66797255  0.79156988     0.13600
C2199       C  0.69204470  0.66693835  0.76256874    -0.24100
H2200       H  0.73539602  0.64419915  0.80232114     0.14900
H2201       H  0.61179311  0.69204868  0.83553942     0.14900
C2202       C  0.65647837  0.66941936  0.87534959    -0.24000
H2203       H  0.71965961  0.65393326  0.75868527     0.05200
H2204       H  0.69709064  0.68969748  0.75504483     0.08400
H2205       H  0.66721243  0.65639226  0.75151606     0.08400
H2206       H  0.68063103  0.68158624  0.88570227     0.08400
H2207       H  0.65454621  0.64664832  0.88348329     0.08400
H2208       H  0.62780251  0.68096371  0.87947757     0.05100
loop_ 
_geom_bond_atom_site_label_1 
_geom_bond_atom_site_label_2 
_geom_bond_distance 
_geom_bond_site_symmetry_2 
_ccdc_geom_bond_type 
C1            C2   1.412       .  A
C1            C6   1.397       .  A
C1          C538   1.474       .  S
C2            C3   1.395       .  A
C2          C522   1.475       .  S
C3            C4   1.397       .  A
C3            H8   1.084       .  S
C4            C5   1.414       .  A
C4          C490   1.475       .  S
C5            C6   1.397       .  A
C5          C509   1.479       .  S
C6            H7   1.084       .  S
Zr9          O10   2.435       .  S
Zr9          O11   2.428       .  S
Zr9          O12   2.433       .  S
Zr9          O15   2.429       .  S
Zr9          O17   2.383       .  S
Zr9          O18   2.379       .  S
Zr9          O19   2.405       .  S
Zr9          O20   2.396       .  S
O10          H66   0.989       .  S
O10          H74   0.990       .  S
O11          C31   1.283       .  A
O12          C33   1.284       .  A
O13         Zr23   2.415       .  S
O13          C32   1.281       .  A
O14         Zr22   2.428       .  S
O14          C33   1.285       .  A
O15          C32   1.285       .  A
O16         Zr24   2.431       .  S
O16          C31   1.284       .  A
O17         Zr22   2.391       .  S
O17         Zr24   2.374       .  S
O18         Zr23   2.383       .  S
O18         Zr24   2.369       .  S
O18          H53   0.966       .  S
O19         Zr22   2.399       .  S
O19         Zr39   2.395       .  S
O19          H56   0.964       .  S
O20         Zr23   2.384       .  S
O20         Zr39   2.394       .  S
Zr21         O46   2.441       .  S
Zr21         O40   2.435       .  S
Zr21         O48   2.431       .  S
Zr21         O36   2.439       .  S
Zr21         O27   2.403       .  S
Zr21         O28   2.403       .  S
Zr21         O29   2.380       .  S
Zr21         O30   2.382       .  S
Zr22         O41   2.434       .  S
Zr22         O34   2.435       .  S
Zr22         O35   2.433       .  S
Zr22         O28   2.389       .  S
Zr22         O29   2.386       .  S
Zr23         O25   2.434       .  S
Zr23         O47   2.436       .  S
Zr23         O49   2.409       .  S
Zr23         O27   2.387       .  S
Zr23         O30   2.383       .  S
Zr24         O50   2.436       .  S
Zr24         O51   2.436       .  S
Zr24         O26   2.436       .  S
Zr24         O27   2.399       .  S
Zr24         O28   2.395       .  S
O25          H62   0.990       .  S
O26          H57   0.990       .  S
O26          H71   0.990       .  S
O28          H54   0.964       .  S
O29         Zr39   2.376       .  S
O30         Zr39   2.371       .  S
O30          H55   0.964       .  S
C31          C97   1.473       .  S
C32         C442   1.479       .  S
C33         C458   1.496       .  S
O34          H70   0.990       .  S
O35          C37   1.286       .  A
O36          C37   1.286       .  A
C37         C474   1.497       .  S
O38         Zr39   2.440       .  S
O38          H67   0.990       .  S
Zr39         O42   2.437       .  S
Zr39         O43   2.440       .  S
Zr39         O44   2.428       .  S
O40          C45   1.285       .  A
O41          H58   0.990       .  S
O41          H73   0.990       .  S
O42          H59   0.990       .  S
O43          H63   0.990       .  S
O43          H72   0.990       .  S
O44          C45   1.284       .  A
C45         C111   1.473       .  S
O46          H65   0.990       .  S
O46          H69   0.990       .  S
O47          H61   0.990       .  S
O47          H68   0.989       .  S
O48          C52   1.284       .  A
O49          C52   1.280       .  A
O50          H60   0.990       .  S
O51          H64   0.990       .  S
C52         C541   1.466       .  S
Zr75         O76   2.434       .  S
Zr75         O77   2.441       .  S
Zr75         O78   2.436       .  S
Zr75         O81   2.425       .  S
Zr75         O83   2.379       .  S
Zr75         O84   2.376       .  S
Zr75       O1189   2.405       .  S
Zr75       O1190   2.400       .  S
O76         H132   0.990       .  S
O76         H140   0.989       .  S
O77          C97   1.286       .  A
O78          C99   1.285       .  A
O79       Zr1193   2.411       .  S
O79          C98   1.280       .  A
O80       Zr1192   2.424       .  S
O80          C99   1.284       .  A
O81          C98   1.283       .  A
O82         Zr90   2.417       .  S
O82          C97   1.281       .  A
O83         Zr90   2.378       .  S
O83       Zr1192   2.390       .  S
O84         Zr90   2.367       .  S
O84       Zr1193   2.383       .  S
O84         H119   0.966       .  S
O85         Zr88   2.397   1_545  S
O85        Zr105   2.395       .  S
O85       Zr1179   2.405   1_545  S
O85         H122   0.966       .  S
O86         Zr89   2.387       .  S
O86        Zr105   2.398       .  S
O86       Zr1179   2.402   1_545  S
Zr87        O112   2.440       .  S
Zr87        O106   2.434       .  S
Zr87        O114   2.431       .  S
Zr87        O102   2.429       .  S
Zr87         O95   2.378       .  S
Zr87         O96   2.379       .  S
Zr87       O1197   2.399       .  S
Zr87       O1198   2.401   1_545  S
Zr88        O107   2.435   1_565  S
Zr88       O1204   2.435       .  S
Zr88        O101   2.418   1_565  S
Zr88       O1184   2.420       .  S
Zr88         O95   2.384   1_565  S
Zr88       O1187   2.388       .  S
Zr88       O1198   2.389       .  S
Zr89         O91   2.434       .  S
Zr89       O1217   2.435   1_545  S
Zr89        O115   2.406       .  S
Zr89       O1183   2.413   1_545  S
Zr89         O96   2.380       .  S
Zr89       O1188   2.384   1_545  S
Zr89       O1197   2.386       .  S
Zr90        O116   2.435       .  S
Zr90        O117   2.435       .  S
Zr90         O92   2.436       .  S
Zr90         O93   2.392       .  S
Zr90         O94   2.393       .  S
O91         H128   0.990       .  S
O92         H123   0.990       .  S
O92         H137   0.990       .  S
O93       Zr1191   2.398       .  S
O93       Zr1193   2.385       .  S
O94       Zr1191   2.404       .  S
O94       Zr1192   2.394       .  S
O94         H120   0.966       .  S
O95        Zr105   2.371       .  S
O96        Zr105   2.369       .  S
O96         H121   0.966       .  S
C98         C413   1.465       .  S
C99         C397   1.487       .  S
O100      Zr1192   2.435       .  S
O100        H136   0.990       .  S
O101        C103   1.284       .  A
O102        C103   1.284       .  A
C103        C525   1.486       .  S
O104       Zr105   2.440       .  S
O104        H133   0.990       .  S
Zr105       O108   2.437       .  S
Zr105       O109   2.440       .  S
Zr105       O110   2.429       .  S
O106        C111   1.285       .  A
O107        H124   0.990       .  S
O107        H139   0.990       .  S
O108        H125   0.990       .  S
O109        H129   0.990       .  S
O109        H138   0.990       .  S
O110        C111   1.284       .  A
O112        H131   0.989       .  S
O112        H135   0.990       .  S
O113      Zr1193   2.435       .  S
O113        H127   0.990       .  S
O113        H134   0.989       .  S
O114        C118   1.284       .  A
O115        C118   1.280       .  A
O116        H126   0.990       .  S
O117        H130   0.990       .  S
C118        C429   1.466       .  S
C141        C142   1.412       .  A
C141        C146   1.396       .  A
C141        C426   1.474       .  S
C142        C143   1.401       .  A
C142        C477   1.483       .  S
C143        C144   1.403       .  A
C143        H148   1.084       .  S
C144        C145   1.413       .  A
C144        C362   1.478       .  S
C145        C146   1.395       .  A
C145        C381   1.476       .  S
C146        H147   1.084       .  S
Zr149       O150   2.439       .  S
Zr149       O151   2.442       .  S
Zr149       O152   2.431       .  S
Zr149       O155   2.427   1_455  S
Zr149       O157   2.379       .  S
Zr149       O158   2.380   1_455  S
Zr149       O159   2.405       .  S
Zr149       O160   2.403   1_455  S
O150        H206   0.990       .  S
O150        H214   0.990       .  S
O151        C171   1.285       .  A
O152        C173   1.284       .  A
O153       Zr163   2.421       .  S
O153        C172   1.282       .  A
O154       Zr162   2.421       .  S
O154        C173   1.283       .  A
O155        C172   1.284       .  A
O156       Zr716   2.423       .  S
O156        C171   1.283       .  A
O157       Zr162   2.393       .  S
O157       Zr716   2.369       .  S
O158       Zr163   2.389       .  S
O158       Zr716   2.370   1_655  S
O158        H193   0.966       .  S
O159       Zr162   2.398       .  S
O159       Zr179   2.393       .  S
O159        H196   0.966       .  S
O160       Zr163   2.395       .  S
O160       Zr179   2.396   1_655  S
Zr161       O186   2.435       .  S
Zr161       O180   2.441       .  S
Zr161       O188   2.420   1_455  S
Zr161       O176   2.418       .  S
Zr161       O167   2.398   1_455  S
Zr161       O168   2.401       .  S
Zr161       O721   2.373   1_554  S
Zr161       O722   2.378   1_454  S
Zr162       O181   2.435       .  S
Zr162       O174   2.434       .  S
Zr162       O175   2.435       .  S
Zr162       O169   2.378       .  S
Zr162       O720   2.388       .  S
Zr163       O165   2.437       .  S
Zr163       O739   2.437       .  S
Zr163       O741   2.429       .  S
Zr163       O170   2.382       .  S
Zr163       O719   2.385       .  S
Zr164       O190   2.436   1_455  S
Zr164       O191   2.436       .  S
Zr164       O166   2.437       .  S
Zr164       O708   2.422   1_554  S
Zr164       O167   2.397   1_455  S
Zr164       O168   2.395       .  S
Zr164       O709   2.371   1_554  S
Zr164       O710   2.372   1_454  S
O165        H202   0.990       .  S
O166        H197   0.990       .  S
O166        H211   0.990       .  S
O167       Zr715   2.383   1_554  S
O168       Zr714   2.387   1_554  S
O168        H194   0.966       .  S
O169       Zr179   2.373       .  S
O169       Zr713   2.375       .  S
O170       Zr179   2.373   1_655  S
O170       Zr713   2.377   1_655  S
O170        H195   0.966       .  S
C171        C251   1.476       .  S
C172        C506   1.472       .  S
C173        C365   1.472       .  S
O174        H210   0.989       .  S
O175        C729   1.287       .  A
O176        C177   1.281       .  A
C177        C349   1.492       .  S
C177        O727   1.286       .  A
O178       Zr179   2.439       .  S
O178        H207   0.990   1_455  S
Zr179       O182   2.437       .  S
Zr179       O183   2.440   1_455  S
Zr179       O184   2.425       .  S
O180        C737   1.287   1_554  A
O181        H198   0.990       .  S
O181        H213   0.990       .  S
O182        H199   0.990       .  S
O183        H203   0.990       .  S
O183        H212   0.990       .  S
O184        C185   1.284       .  A
C185        C237   1.476       .  S
C185        O732   1.287       .  A
O186        H205   0.990       .  S
O186        H209   0.990       .  S
O187       Zr715   2.437   1_554  S
O187        H201   0.990       .  S
O187        H208   0.990       .  S
O188        C192   1.282       .  A
O189       Zr715   2.438   1_554  S
O189        C192   1.287       .  A
O190        H200   0.990       .  S
O191        H204   0.990       .  S
C192        C333   1.492       .  S
Zr215       O216   2.436       .  S
Zr215       O217   2.438       .  S
Zr215       O218   2.438   1_455  S
Zr215       O221   2.424       .  S
Zr215       O775   2.380   1_454  S
Zr215       O776   2.383   1_554  S
Zr215      O1329   2.405   1_455  S
Zr215      O1330   2.398       .  S
O216        H272   0.989       .  S
O216        H280   0.989       .  S
O217        C789   1.285   1_554  A
O218        C239   1.286       .  A
O219       Zr229   2.414       .  S
O219        C790   1.281       .  A
O220       Zr780   2.427   1_554  S
O220        C239   1.285       .  A
O221        C238   1.284       .  A
O222       Zr230   2.428       .  S
O222        C237   1.284       .  A
O223       Zr228   2.389       .  S
O223       Zr230   2.371   1_655  S
O223       Zr767   2.381   1_655  S
O224       Zr229   2.387       .  S
O224       Zr230   2.369       .  S
O224       Zr767   2.382       .  S
O224        H259   0.966       .  S
O225       Zr245   2.392   1_655  S
O225      Zr1319   2.404   1_645  S
O225      Zr1884   2.397   1_544  S
O225        H262   0.966       .  S
O226       Zr245   2.393   1_565  S
O226      Zr1319   2.398       .  S
O226      Zr1885   2.392   1_554  S
Zr227       O252   2.440       .  S
Zr227       O246   2.443       .  S
Zr227       O254   2.426       .  S
Zr227       O242   2.413   1_455  S
Zr227       O235   2.379   1_455  S
Zr227       O236   2.375       .  S
Zr227      O1337   2.398   1_545  S
Zr227      O1338   2.406   1_445  S
Zr228       O240   2.435       .  S
Zr228      O1903   2.435       .  S
Zr228       O772   2.432       .  S
Zr228      O1345   2.438       .  S
Zr228       O234   2.391       .  S
Zr228      O1881   2.399       .  S
Zr228      O1339   2.384       .  S
Zr229       O253   2.436       .  S
Zr229      O1335   2.435       .  S
Zr229      O1359   2.424       .  S
Zr229       O233   2.383       .  S
Zr229      O1882   2.390       .  S
Zr229      O1340   2.381       .  S
Zr230       O256   2.436       .  S
Zr230       O257   2.436       .  S
Zr230       O232   2.436   1_455  S
Zr230       O233   2.400       .  S
Zr230       O234   2.394   1_455  S
O231      Zr1333   2.434   1_545  S
O231        H268   0.990       .  S
O232        H263   0.990       .  S
O232        H277   0.990       .  S
O233      Zr1331   2.398       .  S
O234      Zr1331   2.404   1_655  S
O234        H260   0.966       .  S
O235      Zr1332   2.386       .  S
O235       Zr797   2.372   1_655  S
O236      Zr1333   2.381   1_545  S
O236       Zr797   2.374       .  S
O236        H261   0.966       .  S
C237        O769   1.285       .  A
C238        C314   1.468       .  S
C238        O771   1.281   1_554  A
C239        C298   1.491       .  S
O240        H276   0.990       .  S
O241      Zr1332   2.436       .  S
O241        C243   1.287       .  A
O242        C243   1.280       .  A
C243        C493   1.493       .  S
O244       Zr245   2.439       .  S
O244        H273   0.990       .  S
Zr245       O248   2.438   1_455  S
Zr245       O249   2.438       .  S
Zr245       O802   2.424   1_554  S
Zr245       O787   2.372   1_454  S
Zr245       O788   2.373   1_554  S
O246        C251   1.286       .  A
O247      Zr1884   2.435   1_544  S
O247        H264   0.990       .  S
O247        H279   0.990       .  S
O248        H265   0.990       .  S
O249        H269   0.990       .  S
O249        H278   0.990       .  S
O250       Zr797   2.426       .  S
O250        C251   1.284       .  A
O252        H271   0.990       .  S
O252        H275   0.990   1_455  S
O253        H267   0.990       .  S
O253        H274   0.990       .  S
O254        C258   1.284       .  A
O255      Zr1333   2.425   1_545  S
O255        C258   1.283       .  A
O256        H266   0.990       .  S
O257        H270   0.990       .  S
C258        C378   1.478       .  S
C281        C282   1.412       .  A
C281        C286   1.398       .  A
C281        C461   1.479       .  S
C282        C283   1.393       .  A
C282        C410   1.469       .  S
C283        C284   1.393       .  A
C283        H288   1.084       .  S
C284        C285   1.413       .  A
C284        C317   1.474       .  S
C285        C286   1.399       .  A
C285        C346   1.476       .  S
C286        H287   1.084       .  S
C289        C290   1.410       .  A
C289        C294   1.399       .  A
C289        C394   1.474       .  S
C290        C291   1.394       .  A
C290        C445   1.474       .  S
C291        C292   1.397       .  A
C291        H296   1.084       .  S
C292        C293   1.417       .  A
C292        C330   1.478       .  S
C293        C294   1.401       .  A
C293        C301   1.481       .  S
C294        H295   1.084       .  S
C297        C298   1.409       .  A
C297        C302   1.401       .  A
C297        H304   1.084       .  S
C298        C299   1.421       .  A
C299        C300   1.404       .  A
C299        C306   1.504       .  S
C300        C301   1.399       .  A
C300        H305   1.084       .  S
C301        C302   1.408       .  A
C302        C303   1.506       .  S
C303        H307   1.111       .  S
C303        H308   1.110       .  S
C303        H309   1.105       .  S
C306        H310   1.109       .  S
C306        H311   1.108       .  S
C306        H312   1.111       .  S
C313        C314   1.402       .  A
C313        C318   1.400       .  A
C313        H320   1.084       .  S
C314        C315   1.413       .  A
C315        C316   1.398       .  A
C315        C874   1.507   1_554  S
C316        C317   1.399       .  A
C316        H321   1.084       .  S
C317        C318   1.412       .  A
C318        C319   1.509       .  S
C319        H323   1.111       .  S
C319        H324   1.109       .  S
C319        H325   1.109       .  S
C322        C867   1.507       .  S
C322        H326   1.109       .  S
C322        H327   1.110       .  S
C322        H328   1.111       .  S
C329        C330   1.395       .  A
C329        C334   1.399       .  A
C329        H336   1.083       .  S
C330        C331   1.411       .  A
C331        C332   1.403       .  A
C331        C338   1.509       .  S
C332        C333   1.410       .  A
C332        H337   1.084       .  S
C333        C334   1.424       .  A
C334        C335   1.507       .  S
C335        H339   1.111       .  S
C335        H340   1.110       .  S
C335        H341   1.107       .  S
C338        H342   1.106       .  S
C338        H343   1.109       .  S
C338        H344   1.111       .  S
C345        C346   1.395       .  A
C345        C350   1.397       .  A
C345        H352   1.082       .  S
C346        C347   1.406       .  A
C347        C348   1.402       .  A
C347        C354   1.507       .  S
C348        C349   1.412       .  A
C348        H905   1.083       .  S
C349        C350   1.425       .  A
C350        C351   1.509       .  S
C351        H355   1.111       .  S
C351        H356   1.106       .  S
C351        H357   1.110       .  S
H353        C900   1.083       .  S
C354        H358   1.109       .  S
C354        H359   1.110       .  S
C354        H912   1.111       .  S
H360        C906   1.111       .  S
C361        C362   1.401       .  A
C361        C366   1.399       .  A
C361        H368   1.083       .  S
C362        C363   1.413       .  A
C363        C364   1.403       .  A
C363        C370   1.507       .  S
C364        C365   1.404       .  A
C364        H369   1.085       .  S
C365        C366   1.412       .  A
C366        C367   1.508       .  S
C367        H371   1.111       .  S
C367        H372   1.111       .  S
C367        H373   1.108       .  S
C370        H374   1.110       .  S
C370        H375   1.108       .  S
C370        H376   1.110       .  S
C377        C378   1.406       .  A
C377        C382   1.403       .  A
C377        H384   1.084       .  S
C378        C379   1.416       .  A
C379        C380   1.400       .  A
C379        C386   1.507       .  S
C380        C381   1.399       .  A
C380        H385   1.084       .  S
C381        C382   1.407       .  A
C382        C383   1.505       .  S
C383        H387   1.111       .  S
C383        H388   1.110       .  S
C383        H389   1.106       .  S
C386        H390   1.109       .  S
C386        H391   1.111       .  S
C386        H392   1.111       .  S
C393        C394   1.396       .  A
C393        C398   1.399       .  A
C393        H400   1.084       .  S
C394        C395   1.407       .  A
C395        C396   1.402       .  A
C395        C402   1.506       .  S
C396        C397   1.409       .  A
C396        H401   1.084       .  S
C397        C398   1.420       .  A
C398        C399   1.504       .  S
C399        H403   1.111       .  S
C399        H404   1.110       .  S
C399        H405   1.107       .  S
C402        H406   1.110       .  S
C402        H407   1.106       .  S
C402        H408   1.111       .  S
C409        C410   1.398       .  A
C409        C414   1.395       .  A
C409        H416   1.083       .  S
C410        C411   1.409       .  A
C411        C412   1.401       .  A
C411        C418   1.507       .  S
C412        C413   1.403       .  A
C412        H417   1.084       .  S
C413        C414   1.413       .  A
C414        C415   1.506       .  S
C415        H419   1.111       .  S
C415        H420   1.107       .  S
C415        H421   1.111       .  S
C418        H422   1.110       .  S
C418        H423   1.109       .  S
C418        H424   1.110       .  S
C425        C426   1.398       .  A
C425        C430   1.396       .  A
C425        H432   1.082       .  S
C426        C427   1.412       .  A
C427        C428   1.401       .  A
C427        C434   1.508       .  S
C428        C429   1.402       .  A
C428        H433   1.084       .  S
C429        C430   1.413       .  A
C430        C431   1.508       .  S
C431        H435   1.111       .  S
C431        H436   1.107       .  S
C431        H437   1.111       .  S
C434        H438   1.109       .  S
C434        H439   1.109       .  S
C434        H440   1.111       .  S
C441        C442   1.405       .  A
C441        C446   1.399       .  A
C441        H448   1.084       .  S
C442        C443   1.418       .  A
C443        C444   1.400       .  A
C443        C450   1.507       .  S
C444        C445   1.398       .  A
C444        H449   1.082       .  S
C445        C446   1.411       .  A
C446        C447   1.508       .  S
C447        H451   1.110       .  S
C447        H452   1.108       .  S
C447        H453   1.110       .  S
C450        H454   1.109       .  S
C450        H455   1.110       .  S
C450        H456   1.111       .  S
C457        C458   1.412       .  A
C457        C462   1.402       .  A
C457        H464   1.083       .  S
C458        C459   1.424       .  A
C459        C460   1.400       .  A
C459        C466   1.505       .  S
C460        C461   1.396       .  A
C460        H465   1.083       .  S
C461        C462   1.409       .  A
C462        C463   1.508       .  S
C463        H467   1.111       .  S
C463        H468   1.109       .  S
C463        H469   1.110       .  S
C466        H470   1.108       .  S
C466        H471   1.110       .  S
C466        H472   1.111       .  S
C473        C474   1.412       .  A
C473        C478   1.406       .  A
C473        H480   1.084       .  S
C474        C475   1.423       .  A
C475        C476   1.402       .  A
C475        C482   1.506       .  S
C476        C477   1.398       .  A
C476        H481   1.083       .  S
C477        C478   1.407       .  A
C478        C479   1.507       .  S
C479        H483   1.111       .  S
C479        H484   1.110       .  S
C479        H485   1.108       .  S
C482        H486   1.108       .  S
C482        H487   1.109       .  S
C482        H488   1.111       .  S
C489        C490   1.394       .  A
C489        C494   1.396       .  A
C489        H496   1.082       .  S
C490        C491   1.407       .  A
C491        C492   1.402       .  A
C491        C498   1.507       .  S
C492        C493   1.412       .  A
C492        H497   1.083       .  S
C493        C494   1.426       .  A
C494        C495   1.509       .  S
C495        H499   1.111       .  S
C495        H500   1.106       .  S
C495        H501   1.110       .  S
C498        H502   1.109       .  S
C498        H503   1.110       .  S
C498        H504   1.110       .  S
C505        C506   1.402       .  A
C505        C510   1.401       .  A
C505        H512   1.084       .  S
C506        C507   1.414       .  A
C507        C508   1.401       .  A
C507        C514   1.506       .  S
C508        C509   1.400       .  A
C508        H513   1.084       .  S
C509        C510   1.413       .  A
C510        C511   1.508       .  S
C511        H515   1.111       .  S
C511        H516   1.109       .  S
C511        H517   1.109       .  S
C514        H518   1.108       .  S
C514        H519   1.111       .  S
C514        H520   1.111       .  S
C521        C522   1.397       .  A
C521        C526   1.399       .  A
C521        H528   1.083       .  S
C522        C523   1.409       .  A
C523        C524   1.400       .  A
C523        C530   1.508       .  S
C524        C525   1.409       .  A
C524        H529   1.084       .  S
C525        C526   1.420       .  A
C526        C527   1.506       .  S
C527        H531   1.111       .  S
C527        H532   1.109       .  S
C527        H533   1.109       .  S
C530        H534   1.109       .  S
C530        H535   1.109       .  S
C530        H536   1.111       .  S
C537        C538   1.399       .  A
C537        C542   1.396       .  A
C537        H544   1.083       .  S
C538        C539   1.411       .  A
C539        C540   1.402       .  A
C539        C546   1.506       .  S
C540        C541   1.402       .  A
C540        H545   1.084       .  S
C541        C542   1.412       .  A
C542        C543   1.507       .  S
C543        H547   1.111       .  S
C543        H548   1.108       .  S
C543        H549   1.110       .  S
C546        H550   1.110       .  S
C546        H551   1.109       .  S
C546        H552   1.111       .  S
C553        C554   1.412       .  A
C553        C558   1.398       .  A
C553       C1090   1.474       .  S
C554        C555   1.397       .  A
C554       C1074   1.477       .  S
C555        C556   1.398       .  A
C555        H560   1.084       .  S
C556        C557   1.414       .  A
C556       C1042   1.477       .  S
C557        C558   1.397       .  A
C557       C1061   1.480       .  S
C558        H559   1.084       .  S
Zr561       O562   2.435       .  S
Zr561       O563   2.431       .  S
Zr561       O564   2.430       .  S
Zr561       O567   2.427       .  S
Zr561       O569   2.380       .  S
Zr561       O570   2.377       .  S
Zr561       O571   2.406       .  S
Zr561       O572   2.398       .  S
O562        H618   0.990       .  S
O562        H626   0.990       .  S
O563        C583   1.284       .  A
O564        C585   1.283       .  A
O565       Zr575   2.419       .  S
O565        C584   1.281       .  A
O566       Zr574   2.420       .  S
O566        C585   1.284       .  A
O567        C584   1.285       .  A
O568       Zr576   2.426       .  S
O568        C583   1.284       .  A
O569       Zr574   2.389       .  S
O569       Zr576   2.373       .  S
O570       Zr575   2.383       .  S
O570       Zr576   2.370       .  S
O570        H605   0.966       .  S
O571       Zr574   2.396       .  S
O571       Zr591   2.397       .  S
O571        H608   0.964       .  S
O572       Zr575   2.384       .  S
O572       Zr591   2.397       .  S
Zr573       O598   2.439       .  S
Zr573       O592   2.429       .  S
Zr573       O600   2.430       .  S
Zr573       O588   2.438       .  S
Zr573       O579   2.399       .  S
Zr573       O580   2.401       .  S
Zr573       O581   2.380       .  S
Zr573       O582   2.383       .  S
Zr574       O593   2.435       .  S
Zr574       O586   2.434       .  S
Zr574       O587   2.429       .  S
Zr574       O580   2.391       .  S
Zr574       O581   2.384       .  S
Zr575       O577   2.434       .  S
Zr575       O599   2.437       .  S
Zr575       O601   2.410       .  S
Zr575       O579   2.388       .  S
Zr575       O582   2.386       .  S
Zr576       O602   2.435       .  S
Zr576       O603   2.435       .  S
Zr576       O578   2.437       .  S
Zr576       O579   2.395       .  S
Zr576       O580   2.394       .  S
O577        H614   0.990       .  S
O578        H609   0.990       .  S
O578        H623   0.990       .  S
O580        H606   0.964       .  S
O581       Zr591   2.373       .  S
O582       Zr591   2.371       .  S
O582        H607   0.964       .  S
C583        C649   1.472       .  S
C584        C994   1.482       .  S
C585       C1010   1.492       .  S
O586        H622   0.990       .  S
O587        C589   1.285       .  A
O588        C589   1.286       .  A
C589       C1026   1.495       .  S
O590       Zr591   2.440       .  S
O590        H619   0.990       .  S
Zr591       O594   2.436       .  S
Zr591       O595   2.440       .  S
Zr591       O596   2.434       .  S
O592        C597   1.284       .  A
O593        H610   0.990       .  S
O593        H625   0.990       .  S
O594        H611   0.990       .  S
O595        H615   0.990       .  S
O595        H624   0.990       .  S
O596        C597   1.285       .  A
C597        C663   1.473       .  S
O598        H617   0.990       .  S
O598        H621   0.989       .  S
O599        H613   0.990       .  S
O599        H620   0.990       .  S
O600        C604   1.284       .  A
O601        C604   1.281       .  A
O602        H612   0.990       .  S
O603        H616   0.990       .  S
C604       C1093   1.465       .  S
Zr627       O628   2.436       .  S
Zr627       O629   2.438       .  S
Zr627       O630   2.439       .  S
Zr627       O633   2.431       .  S
Zr627       O635   2.383       .  S
Zr627       O636   2.378       .  S
Zr627      O1741   2.408       .  S
Zr627      O1742   2.401       .  S
O628        H684   0.990       .  S
O628        H692   0.989       .  S
O629        C649   1.285       .  A
O630        C651   1.286       .  A
O631      Zr1745   2.412       .  S
O631        C650   1.280       .  A
O632      Zr1744   2.421       .  S
O632        C651   1.283       .  A
O633        C650   1.284       .  A
O634       Zr642   2.418       .  S
O634        C649   1.281       .  A
O635      Zr1744   2.392       .  S
O635       Zr642   2.377       .  S
O636      Zr1745   2.385       .  S
O636       Zr642   2.369       .  S
O636        H671   0.966       .  S
O637      Zr1731   2.407   1_545  S
O637       Zr640   2.399   1_545  S
O637       Zr657   2.397       .  S
O637        H674   0.966   1_545  S
O638      Zr1731   2.401   1_545  S
O638       Zr641   2.387       .  S
O638       Zr657   2.398       .  S
Zr639       O664   2.441       .  S
Zr639       O658   2.435       .  S
Zr639       O666   2.438       .  S
Zr639       O654   2.436       .  S
Zr639      O1749   2.401   1_545  S
Zr639      O1750   2.403   1_545  S
Zr639       O647   2.379       .  S
Zr639       O648   2.380       .  S
Zr640       O659   2.435   1_565  S
Zr640      O1756   2.435       .  S
Zr640      O1736   2.417       .  S
Zr640       O653   2.422   1_565  S
Zr640      O1739   2.389       .  S
Zr640      O1750   2.388       .  S
Zr640       O647   2.385   1_565  S
Zr641       O643   2.435       .  S
Zr641      O1769   2.436   1_545  S
Zr641      O1735   2.413   1_545  S
Zr641       O667   2.404       .  S
Zr641      O1740   2.383   1_545  S
Zr641      O1749   2.387   1_545  S
Zr641       O648   2.382       .  S
Zr642       O668   2.437       .  S
Zr642       O669   2.434       .  S
Zr642       O644   2.436       .  S
Zr642       O645   2.394       .  S
Zr642       O646   2.393       .  S
O643        H680   0.990       .  S
O644        H675   0.990       .  S
O644        H689   0.990       .  S
O645      Zr1743   2.399       .  S
O645      Zr1745   2.386       .  S
O646      Zr1743   2.405       .  S
O646      Zr1744   2.391       .  S
O646        H672   0.966       .  S
O647       Zr657   2.373       .  S
O648       Zr657   2.371       .  S
O648        H673   0.966       .  S
C650        C965   1.468       .  S
C651        C949   1.485       .  S
O652      Zr1744   2.435       .  S
O652        H688   0.990       .  S
O653        C655   1.284       .  A
O654        C655   1.285       .  A
C655       C1077   1.491       .  S
O656       Zr657   2.439       .  S
O656        H685   0.990       .  S
Zr657       O660   2.437       .  S
Zr657       O661   2.440       .  S
Zr657       O662   2.426       .  S
O658        C663   1.285       .  A
O659        H676   0.990       .  S
O659        H691   0.990       .  S
O660        H677   0.990       .  S
O661        H681   0.990       .  S
O661        H690   0.990       .  S
O662        C663   1.283       .  A
O664        H683   0.989       .  S
O664        H687   0.990       .  S
O665      Zr1745   2.435       .  S
O665        H679   0.990       .  S
O665        H686   0.989       .  S
O666        C670   1.285       .  A
O667        C670   1.279       .  A
O668        H678   0.990       .  S
O669        H682   0.990       .  S
C670        C981   1.469       .  S
C693        C694   1.412       .  A
C693        C698   1.397       .  A
C693        C978   1.473       .  S
C694        C695   1.398       .  A
C694       C1029   1.480       .  S
C695        C696   1.400       .  A
C695        H700   1.084       .  S
C696        C697   1.412       .  A
C696        C914   1.472       .  S
C697        C698   1.396       .  A
C697        C933   1.477       .  S
C698        H699   1.084       .  S
Zr701       O702   2.441       .  S
Zr701       O703   2.439       .  S
Zr701       O704   2.437       .  S
Zr701       O707   2.431   1_455  S
Zr701       O709   2.380       .  S
Zr701       O710   2.385   1_455  S
Zr701       O711   2.405       .  S
Zr701       O712   2.404   1_455  S
O702        H758   0.991       .  S
O702        H766   0.990       .  S
O703        C723   1.285       .  A
O704        C725   1.285       .  A
O705       Zr715   2.424       .  S
O705        C724   1.283       .  A
O706       Zr714   2.413       .  S
O706        C725   1.281       .  A
O707        C724   1.285       .  A
O708        C723   1.282       .  A
O709       Zr714   2.392       .  S
O710       Zr715   2.392       .  S
O710        H745   0.966       .  S
O711       Zr714   2.398       .  S
O711       Zr731   2.392       .  S
O711        H748   0.966       .  S
O712       Zr715   2.396       .  S
O712       Zr731   2.395   1_655  S
Zr713       O738   2.435       .  S
Zr713       O732   2.443       .  S
Zr713       O740   2.421   1_455  S
Zr713       O728   2.419       .  S
Zr713       O719   2.400   1_455  S
Zr713       O720   2.401       .  S
Zr714       O733   2.436       .  S
Zr714       O726   2.436       .  S
Zr714       O727   2.431   1_556  S
Zr714       O721   2.379       .  S
Zr715       O717   2.435       .  S
Zr715       O722   2.381       .  S
Zr716       O742   2.436   1_455  S
Zr716       O743   2.435       .  S
Zr716       O718   2.436       .  S
Zr716       O719   2.400   1_455  S
Zr716       O720   2.393       .  S
O717        H754   0.990       .  S
O718        H749   0.990       .  S
O718        H763   0.990       .  S
O720        H746   0.966       .  S
O721       Zr731   2.372       .  S
O722       Zr731   2.372   1_655  S
O722        H747   0.966       .  S
C723        C803   1.474       .  S
C724       C1058   1.475       .  S
C725        C917   1.474       .  S
O726        H762   0.990   1_556  S
O728        C729   1.281       .  A
C729        C901   1.494       .  S
O730       Zr731   2.438       .  S
O730        H759   0.990       .  S
Zr731       O734   2.437       .  S
Zr731       O735   2.438   1_455  S
Zr731       O736   2.427       .  S
O733        H750   0.990       .  S
O733        H765   0.990       .  S
O734        H751   0.990       .  S
O735        H755   0.990       .  S
O735        H764   0.990       .  S
O736        C737   1.284       .  A
C737        C789   1.476       .  S
O738        H757   0.989       .  S
O738        H761   0.990       .  S
O739        H753   0.990       .  S
O739        H760   0.990       .  S
O740        C744   1.282       .  A
O741        C744   1.286       .  A
O742        H752   0.990       .  S
O743        H756   0.990       .  S
C744        C885   1.487       .  S
Zr767       O768   2.434       .  S
Zr767       O769   2.438       .  S
Zr767       O770   2.436   1_455  S
Zr767       O773   2.423       .  S
Zr767      O1881   2.405   1_455  S
Zr767      O1882   2.398       .  S
O768        H824   0.989       .  S
O768        H832   0.989       .  S
O770        C791   1.285       .  A
O771       Zr781   2.416       .  S
O772        C791   1.286       .  A
O773        C790   1.284       .  A
O774       Zr782   2.428       .  S
O774        C789   1.285       .  A
O775       Zr780   2.388       .  S
O775       Zr782   2.371   1_655  S
O776       Zr781   2.387       .  S
O776       Zr782   2.370       .  S
O776        H811   0.966       .  S
O777      Zr1871   2.404   1_645  S
O777      Zr1332   2.397       .  S
O777       Zr797   2.391   1_655  S
O777        H814   0.966       .  S
O778      Zr1871   2.397       .  S
O778      Zr1333   2.389       .  S
O778       Zr797   2.393   1_565  S
Zr779       O804   2.439       .  S
Zr779       O798   2.440       .  S
Zr779       O806   2.421       .  S
Zr779       O794   2.409   1_455  S
Zr779      O1889   2.399   1_545  S
Zr779      O1890   2.406   1_445  S
Zr779       O787   2.379   1_455  S
Zr779       O788   2.373       .  S
Zr780      O1351   2.435   1_556  S
Zr780       O792   2.435       .  S
Zr780      O1897   2.436       .  S
Zr780      O1329   2.396   1_556  S
Zr780       O786   2.390       .  S
Zr780      O1891   2.385       .  S
Zr781      O1887   2.435       .  S
Zr781       O805   2.436       .  S
Zr781      O1911   2.426       .  S
Zr781      O1330   2.390   1_556  S
Zr781       O785   2.384       .  S
Zr781      O1892   2.381       .  S
Zr782       O808   2.435       .  S
Zr782       O809   2.435       .  S
Zr782       O784   2.437   1_455  S
Zr782       O785   2.400       .  S
Zr782       O786   2.392   1_455  S
O783      Zr1885   2.435   1_545  S
O783        H820   0.990       .  S
O784        H815   0.990       .  S
O784        H829   0.990       .  S
O785      Zr1883   2.398       .  S
O786      Zr1883   2.404   1_655  S
O786        H812   0.966       .  S
O787      Zr1884   2.387   1_545  S
O788      Zr1885   2.381   1_545  S
O788        H813   0.966       .  S
C790        C866   1.467       .  S
C791        C850   1.492       .  S
O792        H828   0.990       .  S
O793      Zr1884   2.436   1_545  S
O793        C795   1.287       .  A
O794        C795   1.280       .  A
C795       C1045   1.491       .  S
O796       Zr797   2.439       .  S
O796        H825   0.990       .  S
Zr797       O800   2.436   1_455  S
Zr797       O801   2.439       .  S
O798        C803   1.286       .  A
O799      Zr1332   2.435       .  S
O799        H816   0.990       .  S
O799        H831   0.990       .  S
O800        H817   0.990       .  S
O801        H821   0.990       .  S
O801        H830   0.990       .  S
O802        C803   1.284       .  A
O804        H823   0.990       .  S
O804        H827   0.990   1_455  S
O805        H819   0.990       .  S
O805        H826   0.990       .  S
O806        C810   1.282       .  A
O807      Zr1885   2.430   1_545  S
O807        C810   1.284       .  A
O808        H818   0.990       .  S
O809        H822   0.990       .  S
C810        C930   1.475       .  S
C833        C834   1.413       .  A
C833        C838   1.398       .  A
C833       C1013   1.475       .  S
C834        C835   1.392       .  A
C834        C962   1.472       .  S
C835        C836   1.393       .  A
C835        H840   1.084       .  S
C836        C837   1.413       .  A
C836        C869   1.472       .  S
C837        C838   1.397       .  A
C837        C898   1.476       .  S
C838        H839   1.084       .  S
C841        C842   1.409       .  A
C841        C846   1.399       .  A
C841        C946   1.474       .  S
C842        C843   1.393       .  A
C842        C997   1.472       .  S
C843        C844   1.396       .  A
C843        H848   1.084       .  S
C844        C845   1.417       .  A
C844        C882   1.476       .  S
C845        C846   1.401       .  A
C845        C853   1.482       .  S
C846        H847   1.084       .  S
C849        C850   1.408       .  A
C849        C854   1.401       .  A
C849        H856   1.084       .  S
C850        C851   1.422       .  A
C851        C852   1.404       .  A
C851        C858   1.505       .  S
C852        C853   1.399       .  A
C852        H857   1.083       .  S
C853        C854   1.408       .  A
C854        C855   1.506       .  S
C855        H859   1.111       .  S
C855        H860   1.110       .  S
C855        H861   1.105       .  S
C858        H862   1.109       .  S
C858        H863   1.108       .  S
C858        H864   1.111       .  S
C865        C866   1.402       .  A
C865        C870   1.400       .  A
C865        H872   1.084       .  S
C866        C867   1.413       .  A
C867        C868   1.397       .  A
C868        C869   1.398       .  A
C868        H873   1.084       .  S
C869        C870   1.412       .  A
C870        C871   1.509       .  S
C871        H875   1.111       .  S
C871        H876   1.109       .  S
C871        H877   1.109       .  S
C874        H878   1.109       .  S
C874        H879   1.110       .  S
C874        H880   1.111       .  S
C881        C882   1.396       .  A
C881        C886   1.399       .  A
C881        H888   1.083       .  S
C882        C883   1.411       .  A
C883        C884   1.401       .  A
C883        C890   1.509       .  S
C884        C885   1.409       .  A
C884        H889   1.084       .  S
C885        C886   1.421       .  A
C886        C887   1.507       .  S
C887        H891   1.111       .  S
C887        H892   1.109       .  S
C887        H893   1.108       .  S
C890        H894   1.105       .  S
C890        H895   1.109       .  S
C890        H896   1.111       .  S
C897        C898   1.395       .  A
C897        C902   1.396       .  A
C897        H904   1.082       .  S
C898        C899   1.407       .  A
C899        C900   1.403       .  A
C899        C906   1.507       .  S
C900        C901   1.413       .  A
C901        C902   1.425       .  A
C902        C903   1.508       .  S
C903        H907   1.111       .  S
C903        H908   1.106       .  S
C903        H909   1.110       .  S
C906        H910   1.109       .  S
C906        H911   1.110       .  S
C913        C914   1.399       .  A
C913        C918   1.398       .  A
C913        H920   1.084       .  S
C914        C915   1.410       .  A
C915        C916   1.401       .  A
C915        C922   1.507       .  S
C916        C917   1.405       .  A
C916        H921   1.085       .  S
C917        C918   1.415       .  A
C918        C919   1.508       .  S
C919        H923   1.111       .  S
C919        H924   1.110       .  S
C919        H925   1.109       .  S
C922        H926   1.110       .  S
C922        H927   1.109       .  S
C922        H928   1.110       .  S
C929        C930   1.405       .  A
C929        C934   1.402       .  A
C929        H936   1.084       .  S
C930        C931   1.414       .  A
C931        C932   1.400       .  A
C931        C938   1.507       .  S
C932        C933   1.400       .  A
C932        H937   1.084       .  S
C933        C934   1.408       .  A
C934        C935   1.505       .  S
C935        H939   1.111       .  S
C935        H940   1.110       .  S
C935        H941   1.107       .  S
C938        H942   1.108       .  S
C938        H943   1.111       .  S
C938        H944   1.111       .  S
C945        C946   1.396       .  A
C945        C950   1.399       .  A
C945        H952   1.084       .  S
C946        C947   1.407       .  A
C947        C948   1.402       .  A
C947        C954   1.506       .  S
C948        C949   1.409       .  A
C948        H953   1.084       .  S
C949        C950   1.419       .  A
C950        C951   1.504       .  S
C951        H955   1.111       .  S
C951        H956   1.110       .  S
C951        H957   1.106       .  S
C954        H958   1.110       .  S
C954        H959   1.106       .  S
C954        H960   1.111       .  S
C961        C962   1.398       .  A
C961        C966   1.396       .  A
C961        H968   1.083       .  S
C962        C963   1.411       .  A
C963        C964   1.402       .  A
C963        C970   1.507       .  S
C964        C965   1.403       .  A
C964        H969   1.084       .  S
C965        C966   1.414       .  A
C966        C967   1.506       .  S
C967        H971   1.111       .  S
C967        H972   1.108       .  S
C967        H973   1.110       .  S
C970        H974   1.110       .  S
C970        H975   1.109       .  S
C970        H976   1.111       .  S
C977        C978   1.398       .  A
C977        C982   1.397       .  A
C977        H984   1.082       .  S
C978        C979   1.412       .  A
C979        C980   1.401       .  A
C979        C986   1.508       .  S
C980        C981   1.403       .  A
C980        H985   1.084       .  S
C981        C982   1.415       .  A
C982        C983   1.508       .  S
C983        H987   1.111       .  S
C983        H988   1.108       .  S
C983        H989   1.111       .  S
C986        H990   1.109       .  S
C986        H991   1.108       .  S
C986        H992   1.111       .  S
C993        C994   1.406       .  A
C993        C998   1.399       .  A
C993       H1000   1.084       .  S
C994        C995   1.420       .  A
C995        C996   1.400       .  A
C995       C1002   1.508       .  S
C996        C997   1.397       .  A
C996       H1001   1.083       .  S
C997        C998   1.411       .  A
C998        C999   1.508       .  S
C999       H1003   1.110       .  S
C999       H1004   1.108       .  S
C999       H1005   1.110       .  S
C1002      H1006   1.109       .  S
C1002      H1007   1.110       .  S
C1002      H1008   1.111       .  S
C1009      C1010   1.412       .  A
C1009      C1014   1.401       .  A
C1009      H1016   1.083       .  S
C1010      C1011   1.423       .  A
C1011      C1012   1.398       .  A
C1011      C1018   1.505       .  S
C1012      C1013   1.395       .  A
C1012      H1017   1.083       .  S
C1013      C1014   1.409       .  A
C1014      C1015   1.509       .  S
C1015      H1019   1.111       .  S
C1015      H1020   1.109       .  S
C1015      H1021   1.110       .  S
C1018      H1022   1.107       .  S
C1018      H1023   1.110       .  S
C1018      H1024   1.111       .  S
C1025      C1026   1.412       .  A
C1025      C1030   1.405       .  A
C1025      H1032   1.084       .  S
C1026      C1027   1.422       .  A
C1027      C1028   1.400       .  A
C1027      C1034   1.506       .  S
C1028      C1029   1.397       .  A
C1028      H1033   1.082       .  S
C1029      C1030   1.407       .  A
C1030      C1031   1.507       .  S
C1031      H1035   1.111       .  S
C1031      H1036   1.110       .  S
C1031      H1037   1.109       .  S
C1034      H1038   1.107       .  S
C1034      H1039   1.109       .  S
C1034      H1040   1.111       .  S
C1041      C1042   1.395       .  A
C1041      C1046   1.396       .  A
C1041      H1048   1.082       .  S
C1042      C1043   1.407       .  A
C1043      C1044   1.402       .  A
C1043      C1050   1.507       .  S
C1044      C1045   1.411       .  A
C1044      H1049   1.083       .  S
C1045      C1046   1.426       .  A
C1046      C1047   1.509       .  S
C1047      H1051   1.111       .  S
C1047      H1052   1.106       .  S
C1047      H1053   1.110       .  S
C1050      H1054   1.109       .  S
C1050      H1055   1.110       .  S
C1050      H1056   1.111       .  S
C1057      C1058   1.403       .  A
C1057      C1062   1.404       .  A
C1057      H1064   1.084       .  S
C1058      C1059   1.414       .  A
C1059      C1060   1.399       .  A
C1059      C1066   1.506       .  S
C1060      C1061   1.399       .  A
C1060      H1065   1.084       .  S
C1061      C1062   1.414       .  A
C1062      C1063   1.508       .  S
C1063      H1067   1.111       .  S
C1063      H1068   1.109       .  S
C1063      H1069   1.109       .  S
C1066      H1070   1.108       .  S
C1066      H1071   1.111       .  S
C1066      H1072   1.111       .  S
C1073      C1074   1.397       .  A
C1073      C1078   1.401       .  A
C1073      H1080   1.083       .  S
C1074      C1075   1.409       .  A
C1075      C1076   1.402       .  A
C1075      C1082   1.509       .  S
C1076      C1077   1.410       .  A
C1076      H1081   1.084       .  S
C1077      C1078   1.422       .  A
C1078      C1079   1.506       .  S
C1079      H1083   1.111       .  S
C1079      H1084   1.108       .  S
C1079      H1085   1.109       .  S
C1082      H1086   1.109       .  S
C1082      H1087   1.109       .  S
C1082      H1088   1.110       .  S
C1089      C1090   1.400       .  A
C1089      C1094   1.397       .  A
C1089      H1096   1.083       .  S
C1090      C1091   1.411       .  A
C1091      C1092   1.402       .  A
C1091      C1098   1.506       .  S
C1092      C1093   1.402       .  A
C1092      H1097   1.084       .  S
C1093      C1094   1.412       .  A
C1094      C1095   1.508       .  S
C1095      H1099   1.111       .  S
C1095      H1100   1.108       .  S
C1095      H1101   1.110       .  S
C1098      H1102   1.110       .  S
C1098      H1103   1.109       .  S
C1098      H1104   1.111       .  S
C1105      C1106   1.411       .  A
C1105      C1110   1.396       .  A
C1105      C1642   1.472       .  S
C1106      C1107   1.396       .  A
C1106      C1626   1.476       .  S
C1107      C1108   1.397       .  A
C1107      H1112   1.084       .  S
C1108      C1109   1.414       .  A
C1108      C1594   1.475       .  S
C1109      C1110   1.396       .  A
C1109      C1613   1.476       .  S
C1110      H1111   1.084       .  S
Zr1113     O1114   2.435       .  S
Zr1113     O1115   2.428       .  S
Zr1113     O1116   2.430       .  S
Zr1113     O1119   2.428       .  S
Zr1113     O1121   2.382       .  S
Zr1113     O1122   2.377       .  S
Zr1113     O1123   2.405       .  S
Zr1113     O1124   2.394       .  S
O1114      H1170   0.989       .  S
O1114      H1178   0.990       .  S
O1115      C1135   1.283       .  A
O1116      C1137   1.284       .  A
O1117     Zr1127   2.411       .  S
O1117      C1136   1.280       .  A
O1118     Zr1126   2.427       .  S
O1118      C1137   1.285       .  A
O1119      C1136   1.285       .  A
O1120     Zr1128   2.429       .  S
O1120      C1135   1.284       .  A
O1121     Zr1126   2.390       .  S
O1121     Zr1128   2.374       .  S
O1122     Zr1127   2.382       .  S
O1122     Zr1128   2.369       .  S
O1122      H1157   0.966       .  S
O1123     Zr1126   2.397       .  S
O1123     Zr1143   2.396       .  S
O1123      H1160   0.964       .  S
O1124     Zr1127   2.384       .  S
O1124     Zr1143   2.394       .  S
Zr1125     O1150   2.440       .  S
Zr1125     O1144   2.435       .  S
Zr1125     O1152   2.427       .  S
Zr1125     O1140   2.433       .  S
Zr1125     O1131   2.400       .  S
Zr1125     O1132   2.402       .  S
Zr1125     O1133   2.378       .  S
Zr1125     O1134   2.380       .  S
Zr1126     O1145   2.435       .  S
Zr1126     O1138   2.434       .  S
Zr1126     O1139   2.430       .  S
Zr1126     O1132   2.389       .  S
Zr1126     O1133   2.383       .  S
Zr1127     O1129   2.433       .  S
Zr1127     O1151   2.437       .  S
Zr1127     O1153   2.411       .  S
Zr1127     O1131   2.386       .  S
Zr1127     O1134   2.384       .  S
Zr1128     O1154   2.435       .  S
Zr1128     O1155   2.436       .  S
Zr1128     O1130   2.437       .  S
Zr1128     O1131   2.398       .  S
Zr1128     O1132   2.393       .  S
O1129      H1166   0.990       .  S
O1130      H1161   0.990       .  S
O1130      H1175   0.990       .  S
O1132      H1158   0.964       .  S
O1133     Zr1143   2.374       .  S
O1134     Zr1143   2.372       .  S
O1134      H1159   0.964       .  S
C1135      C1201   1.471       .  S
C1136      C1546   1.477       .  S
C1137      C1562   1.493       .  S
O1138      H1174   0.990       .  S
O1139      C1141   1.286       .  A
O1140      C1141   1.285       .  A
C1141      C1578   1.496       .  S
O1142     Zr1143   2.440       .  S
O1142      H1171   0.990       .  S
Zr1143     O1146   2.436       .  S
Zr1143     O1147   2.441       .  S
Zr1143     O1148   2.426       .  S
O1144      C1149   1.285       .  A
O1145      H1162   0.990       .  S
O1145      H1177   0.990       .  S
O1146      H1163   0.990       .  S
O1147      H1167   0.990       .  S
O1147      H1176   0.990       .  S
O1148      C1149   1.284       .  A
C1149      C1215   1.473       .  S
O1150      H1169   0.990       .  S
O1150      H1173   0.990       .  S
O1151      H1165   0.990       .  S
O1151      H1172   0.990       .  S
O1152      C1156   1.283       .  A
O1153      C1156   1.281       .  A
O1154      H1164   0.990       .  S
O1155      H1168   0.990       .  S
C1156      C1645   1.465       .  S
Zr1179     O1180   2.435       .  S
Zr1179     O1181   2.439       .  S
Zr1179     O1182   2.442       .  S
Zr1179     O1185   2.426       .  S
Zr1179     O1187   2.378       .  S
Zr1179     O1188   2.379       .  S
O1180      H1236   0.989       .  S
O1180      H1244   0.989       .  S
O1181      C1201   1.285       .  A
O1182      C1203   1.286       .  A
O1183      C1202   1.281       .  A
O1184      C1203   1.283       .  A
O1185      C1202   1.283       .  A
O1186     Zr1194   2.417       .  S
O1186      C1201   1.281       .  A
O1187     Zr1194   2.378       .  S
O1188     Zr1194   2.368       .  S
O1188      H1223   0.966       .  S
O1189     Zr1192   2.396       .  S
O1189     Zr1209   2.396       .  S
O1189      H1226   0.966       .  S
O1190     Zr1193   2.387       .  S
O1190     Zr1209   2.397       .  S
Zr1191     O1216   2.443       .  S
Zr1191     O1210   2.436       .  S
Zr1191     O1218   2.438       .  S
Zr1191     O1206   2.435       .  S
Zr1191     O1199   2.379       .  S
Zr1191     O1200   2.381       .  S
Zr1192     O1211   2.438       .  S
Zr1192     O1205   2.424       .  S
Zr1192     O1199   2.385       .  S
Zr1193     O1195   2.435       .  S
Zr1193     O1219   2.405       .  S
Zr1193     O1200   2.384       .  S
Zr1194     O1220   2.436       .  S
Zr1194     O1221   2.436       .  S
Zr1194     O1196   2.436       .  S
Zr1194     O1197   2.394   1_565  S
Zr1194     O1198   2.392       .  S
O1195      H1232   0.990       .  S
O1196      H1227   0.990       .  S
O1196      H1241   0.990       .  S
O1198      H1224   0.966       .  S
O1199     Zr1209   2.372       .  S
O1200     Zr1209   2.373       .  S
O1200      H1225   0.966       .  S
C1202      C1517   1.466       .  S
C1203      C1501   1.490       .  S
O1204      H1240   0.990       .  S
O1205      C1207   1.285       .  A
O1206      C1207   1.285       .  A
C1207      C1629   1.491       .  S
O1208     Zr1209   2.439       .  S
O1208      H1237   0.991       .  S
Zr1209     O1212   2.438       .  S
Zr1209     O1213   2.438       .  S
Zr1209     O1214   2.428       .  S
O1210      C1215   1.285       .  A
O1211      H1228   0.990       .  S
O1211      H1243   0.990       .  S
O1212      H1229   0.990       .  S
O1213      H1233   0.990       .  S
O1213      H1242   0.990       .  S
O1214      C1215   1.284       .  A
O1216      H1235   0.989       .  S
O1216      H1239   0.990       .  S
O1217      H1231   0.990       .  S
O1217      H1238   0.990       .  S
O1218      C1222   1.285       .  A
O1219      C1222   1.279       .  A
O1220      H1230   0.990       .  S
O1221      H1234   0.990       .  S
C1222      C1533   1.469       .  S
C1245      C1246   1.413       .  A
C1245      C1250   1.396       .  A
C1245      C1530   1.474       .  S
C1246      C1247   1.400       .  A
C1246      C1581   1.481       .  S
C1247      C1248   1.400       .  A
C1247      H1252   1.084       .  S
C1248      C1249   1.413       .  A
C1248      C1466   1.476       .  S
C1249      C1250   1.396       .  A
C1249      C1485   1.475       .  S
C1250      H1251   1.084       .  S
Zr1253     O1254   2.440       .  S
Zr1253     O1255   2.438       .  S
Zr1253     O1256   2.435       .  S
Zr1253     O1259   2.434   1_455  S
Zr1253     O1261   2.380       .  S
Zr1253     O1262   2.382   1_455  S
Zr1253     O1263   2.406       .  S
Zr1253     O1264   2.403   1_455  S
O1254      H1310   0.990       .  S
O1254      H1318   0.990       .  S
O1255      C1275   1.284       .  A
O1256      C1277   1.285       .  A
O1257     Zr1267   2.419       .  S
O1257      C1276   1.282       .  A
O1258     Zr1266   2.412       .  S
O1258      C1277   1.280       .  A
O1259      C1276   1.286       .  A
O1260     Zr1820   2.422       .  S
O1260      C1275   1.283       .  A
O1261     Zr1266   2.389       .  S
O1261     Zr1820   2.369       .  S
O1262     Zr1267   2.388       .  S
O1262     Zr1820   2.372   1_655  S
O1262      H1297   0.966       .  S
O1263     Zr1266   2.397       .  S
O1263     Zr1283   2.392       .  S
O1263      H1300   0.966       .  S
O1264     Zr1267   2.396       .  S
O1264     Zr1283   2.396   1_655  S
Zr1265     O1290   2.434       .  S
Zr1265     O1284   2.441       .  S
Zr1265     O1292   2.420   1_455  S
Zr1265     O1280   2.418       .  S
Zr1265     O1271   2.398   1_455  S
Zr1265     O1272   2.402       .  S
Zr1265     O1825   2.376   1_554  S
Zr1265     O1826   2.375   1_454  S
Zr1266     O1285   2.437       .  S
Zr1266     O1278   2.436       .  S
Zr1266     O1279   2.431       .  S
Zr1266     O1824   2.387       .  S
Zr1266     O1273   2.380       .  S
Zr1267     O1269   2.435       .  S
Zr1267     O1843   2.438       .  S
Zr1267     O1845   2.430       .  S
Zr1267     O1823   2.383       .  S
Zr1267     O1274   2.384       .  S
Zr1268     O1294   2.436   1_455  S
Zr1268     O1295   2.435       .  S
Zr1268     O1270   2.438       .  S
Zr1268     O1812   2.427   1_554  S
Zr1268     O1813   2.367   1_554  S
Zr1268     O1814   2.371   1_454  S
Zr1268     O1271   2.400   1_455  S
Zr1268     O1272   2.392       .  S
O1269      H1306   0.990       .  S
O1270      H1301   0.990       .  S
O1270      H1315   0.990       .  S
O1271     Zr1819   2.381   1_554  S
O1272     Zr1818   2.385   1_554  S
O1272      H1298   0.966       .  S
O1273     Zr1817   2.376       .  S
O1273     Zr1283   2.371       .  S
O1274     Zr1817   2.378   1_655  S
O1274     Zr1283   2.375   1_655  S
O1274      H1299   0.966       .  S
C1275      C1355   1.473       .  S
C1276      C1610   1.475       .  S
C1277      C1469   1.480       .  S
O1278      H1314   0.990       .  S
O1279      C1833   1.286       .  A
O1280      C1281   1.281       .  A
C1281      C1453   1.496       .  S
C1281      O1831   1.287       .  A
O1282     Zr1283   2.439       .  S
O1282      H1311   0.990       .  S
Zr1283     O1286   2.438       .  S
Zr1283     O1287   2.438   1_455  S
Zr1283     O1288   2.425       .  S
O1284      C1841   1.286   1_554  A
O1285      H1302   0.990       .  S
O1285      H1317   0.990       .  S
O1286      H1303   0.990       .  S
O1287      H1307   0.990       .  S
O1287      H1316   0.990       .  S
O1288      C1289   1.284       .  A
C1289      C1341   1.475       .  S
C1289      O1836   1.286       .  A
O1290      H1309   0.990       .  S
O1290      H1313   0.990       .  S
O1291     Zr1819   2.436   1_554  S
O1291      H1305   0.990       .  S
O1291      H1312   0.990       .  S
O1292      C1296   1.282       .  A
O1293     Zr1819   2.438   1_554  S
O1293      C1296   1.287       .  A
O1294      H1304   0.990       .  S
O1295      H1308   0.990       .  S
C1296      C1437   1.492       .  S
Zr1319     O1320   2.434       .  S
Zr1319     O1321   2.435       .  S
Zr1319     O1322   2.439   1_455  S
Zr1319     O1325   2.424       .  S
Zr1319     O1879   2.379   1_454  S
Zr1319     O1880   2.383   1_554  S
O1320      H1376   0.989       .  S
O1320      H1384   0.989       .  S
O1321      C1893   1.284   1_554  A
O1322      C1343   1.286       .  A
O1323     Zr1333   2.413       .  S
O1323      C1894   1.281       .  A
O1324     Zr1884   2.431   1_554  S
O1324      C1343   1.286       .  A
O1325      C1342   1.284       .  A
O1326     Zr1334   2.427       .  S
O1326      C1341   1.284       .  A
O1327     Zr1871   2.381   1_655  S
O1327     Zr1332   2.390   1_565  S
O1327     Zr1334   2.371   1_655  S
O1328     Zr1871   2.382       .  S
O1328     Zr1333   2.388       .  S
O1328     Zr1334   2.370       .  S
O1328      H1363   0.966       .  S
O1329     Zr1349   2.391   1_655  S
O1329      H1366   0.966       .  S
O1330     Zr1349   2.391       .  S
Zr1331     O1356   2.440       .  S
Zr1331     O1350   2.443       .  S
Zr1331     O1358   2.419       .  S
Zr1331     O1346   2.412   1_455  S
Zr1331     O1339   2.377   1_455  S
Zr1331     O1340   2.375       .  S
Zr1332     O1344   2.436   1_545  S
Zr1332     O1876   2.429   1_545  S
Zr1332     O1338   2.391   1_545  S
Zr1333     O1357   2.436       .  S
Zr1333     O1337   2.382       .  S
Zr1334     O1360   2.437       .  S
Zr1334     O1361   2.435       .  S
Zr1334     O1336   2.438   1_455  S
Zr1334     O1337   2.401       .  S
Zr1334     O1338   2.392   1_455  S
O1335      H1372   0.990       .  S
O1336      H1367   0.990       .  S
O1336      H1381   0.990       .  S
O1338      H1364   0.966       .  S
O1339     Zr1901   2.370   1_655  S
O1340     Zr1901   2.371       .  S
O1340      H1365   0.966       .  S
C1341      O1873   1.285       .  A
C1342      C1418   1.467       .  S
C1342      O1875   1.281   1_554  A
C1343      C1402   1.491       .  S
O1344      H1380   0.990       .  S
O1345      C1347   1.287       .  A
O1346      C1347   1.280       .  A
C1347      C1597   1.492       .  S
O1348     Zr1349   2.439       .  S
O1348      H1377   0.990       .  S
Zr1349     O1352   2.438   1_455  S
Zr1349     O1353   2.438       .  S
Zr1349     O1906   2.422   1_554  S
Zr1349     O1891   2.371   1_454  S
Zr1349     O1892   2.373   1_554  S
O1350      C1355   1.286       .  A
O1351      H1368   0.990       .  S
O1351      H1383   0.990       .  S
O1352      H1369   0.990       .  S
O1353      H1373   0.990       .  S
O1353      H1382   0.990       .  S
O1354     Zr1901   2.420       .  S
O1354      C1355   1.283       .  A
O1356      H1375   0.990       .  S
O1356      H1379   0.990   1_455  S
O1357      H1371   0.990       .  S
O1357      H1378   0.990       .  S
O1358      C1362   1.282       .  A
O1359      C1362   1.283       .  A
O1360      H1370   0.990       .  S
O1361      H1374   0.990       .  S
C1362      C1482   1.466       .  S
C1385      C1386   1.413       .  A
C1385      C1390   1.399       .  A
C1385      C1565   1.476       .  S
C1386      C1387   1.393       .  A
C1386      C1514   1.473       .  S
C1387      C1388   1.393       .  A
C1387      H1392   1.084       .  S
C1388      C1389   1.413       .  A
C1388      C1421   1.471       .  S
C1389      C1390   1.398       .  A
C1389      C1450   1.478       .  S
C1390      H1391   1.084       .  S
C1393      C1394   1.409       .  A
C1393      C1398   1.398       .  A
C1393      C1498   1.475       .  S
C1394      C1395   1.394       .  A
C1394      C1549   1.472       .  S
C1395      C1396   1.398       .  A
C1395      H1400   1.084       .  S
C1396      C1397   1.418       .  A
C1396      C1434   1.479       .  S
C1397      C1398   1.401       .  A
C1397      C1405   1.481       .  S
C1398      H1399   1.084       .  S
C1401      C1402   1.408       .  A
C1401      C1406   1.402       .  A
C1401      H1408   1.084       .  S
C1402      C1403   1.421       .  A
C1403      C1404   1.404       .  A
C1403      C1410   1.504       .  S
C1404      C1405   1.399       .  A
C1404      H1409   1.084       .  S
C1405      C1406   1.408       .  A
C1406      C1407   1.506       .  S
C1407      H1411   1.111       .  S
C1407      H1412   1.110       .  S
C1407      H1413   1.105       .  S
C1410      H1414   1.109       .  S
C1410      H1415   1.108       .  S
C1410      H1416   1.111       .  S
C1417      C1418   1.402       .  A
C1417      C1422   1.399       .  A
C1417      H1424   1.084       .  S
C1418      C1419   1.413       .  A
C1419      C1420   1.397       .  A
C1419      C1978   1.506   1_554  S
C1420      C1421   1.399       .  A
C1420      H1425   1.084       .  S
C1421      C1422   1.412       .  A
C1422      C1423   1.509       .  S
C1423      H1427   1.111       .  S
C1423      H1428   1.109       .  S
C1423      H1429   1.109       .  S
C1426      C1971   1.507       .  S
C1426      H1430   1.108       .  S
C1426      H1431   1.110       .  S
C1426      H1432   1.111       .  S
C1433      C1434   1.396       .  A
C1433      C1438   1.400       .  A
C1433      H1440   1.083       .  S
C1434      C1435   1.411       .  A
C1435      C1436   1.402       .  A
C1435      C1442   1.509       .  S
C1436      C1437   1.409       .  A
C1436      H1441   1.084       .  S
C1437      C1438   1.424       .  A
C1438      C1439   1.507       .  S
C1439      H1443   1.111       .  S
C1439      H1444   1.109       .  S
C1439      H1445   1.107       .  S
C1442      H1446   1.106       .  S
C1442      H1447   1.109       .  S
C1442      H1448   1.111       .  S
C1449      C1450   1.395       .  A
C1449      C1454   1.398       .  A
C1449      H1456   1.083       .  S
C1450      C1451   1.407       .  A
C1451      C1452   1.404       .  A
C1451      C1458   1.507       .  S
C1452      C1453   1.412       .  A
C1452      H2009   1.083       .  S
C1453      C1454   1.426       .  A
C1454      C1455   1.509       .  S
C1455      H1459   1.111       .  S
C1455      H1460   1.106       .  S
C1455      H1461   1.110       .  S
H1457      C2004   1.083       .  S
C1458      H1462   1.109       .  S
C1458      H1463   1.110       .  S
C1458      H2016   1.111       .  S
H1464      C2010   1.111       .  S
C1465      C1466   1.399       .  A
C1465      C1470   1.400       .  A
C1465      H1472   1.084       .  S
C1466      C1467   1.410       .  A
C1467      C1468   1.400       .  A
C1467      C1474   1.505       .  S
C1468      C1469   1.405       .  A
C1468      H1473   1.084       .  S
C1469      C1470   1.419       .  A
C1470      C1471   1.509       .  S
C1471      H1475   1.111       .  S
C1471      H1476   1.111       .  S
C1471      H1477   1.109       .  S
C1474      H1478   1.110       .  S
C1474      H1479   1.108       .  S
C1474      H1480   1.110       .  S
C1481      C1482   1.403       .  A
C1481      C1486   1.402       .  A
C1481      H1488   1.084       .  S
C1482      C1483   1.411       .  A
C1483      C1484   1.398       .  A
C1483      C1490   1.507       .  S
C1484      C1485   1.401       .  A
C1484      H1489   1.083       .  S
C1485      C1486   1.410       .  A
C1486      C1487   1.506       .  S
C1487      H1491   1.111       .  S
C1487      H1492   1.109       .  S
C1487      H1493   1.107       .  S
C1490      H1494   1.108       .  S
C1490      H1495   1.111       .  S
C1490      H1496   1.111       .  S
C1497      C1498   1.395       .  A
C1497      C1502   1.400       .  A
C1497      H1504   1.084       .  S
C1498      C1499   1.406       .  A
C1499      C1500   1.403       .  A
C1499      C1506   1.506       .  S
C1500      C1501   1.411       .  A
C1500      H1505   1.084       .  S
C1501      C1502   1.421       .  A
C1502      C1503   1.503       .  S
C1503      H1507   1.111       .  S
C1503      H1508   1.109       .  S
C1503      H1509   1.107       .  S
C1506      H1510   1.110       .  S
C1506      H1511   1.107       .  S
C1506      H1512   1.111       .  S
C1513      C1514   1.399       .  A
C1513      C1518   1.397       .  A
C1513      H1520   1.083       .  S
C1514      C1515   1.411       .  A
C1515      C1516   1.401       .  A
C1515      C1522   1.507       .  S
C1516      C1517   1.402       .  A
C1516      H1521   1.084       .  S
C1517      C1518   1.412       .  A
C1518      C1519   1.506       .  S
C1519      H1523   1.111       .  S
C1519      H1524   1.108       .  S
C1519      H1525   1.110       .  S
C1522      H1526   1.110       .  S
C1522      H1527   1.109       .  S
C1522      H1528   1.111       .  S
C1529      C1530   1.398       .  A
C1529      C1534   1.397       .  A
C1529      H1536   1.082       .  S
C1530      C1531   1.412       .  A
C1531      C1532   1.401       .  A
C1531      C1538   1.508       .  S
C1532      C1533   1.403       .  A
C1532      H1537   1.084       .  S
C1533      C1534   1.414       .  A
C1534      C1535   1.507       .  S
C1535      H1539   1.111       .  S
C1535      H1540   1.108       .  S
C1535      H1541   1.111       .  S
C1538      H1542   1.109       .  S
C1538      H1543   1.109       .  S
C1538      H1544   1.111       .  S
C1545      C1546   1.404       .  A
C1545      C1550   1.398       .  A
C1545      H1552   1.085       .  S
C1546      C1547   1.418       .  A
C1547      C1548   1.400       .  A
C1547      C1554   1.508       .  S
C1548      C1549   1.398       .  A
C1548      H1553   1.083       .  S
C1549      C1550   1.411       .  A
C1550      C1551   1.508       .  S
C1551      H1555   1.110       .  S
C1551      H1556   1.108       .  S
C1551      H1557   1.110       .  S
C1554      H1558   1.109       .  S
C1554      H1559   1.110       .  S
C1554      H1560   1.111       .  S
C1561      C1562   1.411       .  A
C1561      C1566   1.401       .  A
C1561      H1568   1.083       .  S
C1562      C1563   1.424       .  A
C1563      C1564   1.399       .  A
C1563      C1570   1.505       .  S
C1564      C1565   1.396       .  A
C1564      H1569   1.083       .  S
C1565      C1566   1.408       .  A
C1566      C1567   1.508       .  S
C1567      H1571   1.111       .  S
C1567      H1572   1.109       .  S
C1567      H1573   1.110       .  S
C1570      H1574   1.108       .  S
C1570      H1575   1.110       .  S
C1570      H1576   1.111       .  S
C1577      C1578   1.412       .  A
C1577      C1582   1.404       .  A
C1577      H1584   1.083       .  S
C1578      C1579   1.423       .  A
C1579      C1580   1.401       .  A
C1579      C1586   1.506       .  S
C1580      C1581   1.397       .  A
C1580      H1585   1.083       .  S
C1581      C1582   1.407       .  A
C1582      C1583   1.507       .  S
C1583      H1587   1.111       .  S
C1583      H1588   1.110       .  S
C1583      H1589   1.109       .  S
C1586      H1590   1.107       .  S
C1586      H1591   1.110       .  S
C1586      H1592   1.111       .  S
C1593      C1594   1.394       .  A
C1593      C1598   1.396       .  A
C1593      H1600   1.082       .  S
C1594      C1595   1.407       .  A
C1595      C1596   1.403       .  A
C1595      C1602   1.507       .  S
C1596      C1597   1.411       .  A
C1596      H1601   1.083       .  S
C1597      C1598   1.426       .  A
C1598      C1599   1.509       .  S
C1599      H1603   1.111       .  S
C1599      H1604   1.106       .  S
C1599      H1605   1.110       .  S
C1602      H1606   1.109       .  S
C1602      H1607   1.110       .  S
C1602      H1608   1.111       .  S
C1609      C1610   1.404       .  A
C1609      C1614   1.403       .  A
C1609      H1616   1.084       .  S
C1610      C1611   1.416       .  A
C1611      C1612   1.399       .  A
C1611      C1618   1.507       .  S
C1612      C1613   1.398       .  A
C1612      H1617   1.084       .  S
C1613      C1614   1.413       .  A
C1614      C1615   1.508       .  S
C1615      H1619   1.111       .  S
C1615      H1620   1.109       .  S
C1615      H1621   1.109       .  S
C1618      H1622   1.108       .  S
C1618      H1623   1.110       .  S
C1618      H1624   1.111       .  S
C1625      C1626   1.396       .  A
C1625      C1630   1.400       .  A
C1625      H1632   1.083       .  S
C1626      C1627   1.408       .  A
C1627      C1628   1.401       .  A
C1627      C1634   1.508       .  S
C1628      C1629   1.410       .  A
C1628      H1633   1.084       .  S
C1629      C1630   1.422       .  A
C1630      C1631   1.506       .  S
C1631      H1635   1.111       .  S
C1631      H1636   1.108       .  S
C1631      H1637   1.109       .  S
C1634      H1638   1.109       .  S
C1634      H1639   1.109       .  S
C1634      H1640   1.111       .  S
C1641      C1642   1.399       .  A
C1641      C1646   1.396       .  A
C1641      H1648   1.083       .  S
C1642      C1643   1.410       .  A
C1643      C1644   1.401       .  A
C1643      C1650   1.507       .  S
C1644      C1645   1.403       .  A
C1644      H1649   1.084       .  S
C1645      C1646   1.412       .  A
C1646      C1647   1.507       .  S
C1647      H1651   1.111       .  S
C1647      H1652   1.108       .  S
C1647      H1653   1.111       .  S
C1650      H1654   1.110       .  S
C1650      H1655   1.109       .  S
C1650      H1656   1.111       .  S
C1657      C1658   1.412       .  A
C1657      C1662   1.397       .  A
C1657      C2194   1.472       .  S
C1658      C1659   1.397       .  A
C1658      C2178   1.478       .  S
C1659      C1660   1.398       .  A
C1659      H1664   1.084       .  S
C1660      C1661   1.414       .  A
C1660      C2146   1.475       .  S
C1661      C1662   1.397       .  A
C1661      C2165   1.480       .  S
C1662      H1663   1.084       .  S
Zr1665     O1666   2.435       .  S
Zr1665     O1667   2.433       .  S
Zr1665     O1668   2.430       .  S
Zr1665     O1671   2.427       .  S
Zr1665     O1673   2.380       .  S
Zr1665     O1674   2.378       .  S
Zr1665     O1675   2.405       .  S
Zr1665     O1676   2.398       .  S
O1666      H1722   0.989       .  S
O1666      H1730   0.990       .  S
O1667      C1687   1.284       .  A
O1668      C1689   1.283       .  A
O1669     Zr1679   2.421       .  S
O1669      C1688   1.282       .  A
O1670     Zr1678   2.424       .  S
O1670      C1689   1.284       .  A
O1671      C1688   1.285       .  A
O1672     Zr1680   2.426       .  S
O1672      C1687   1.283       .  A
O1673     Zr1678   2.390       .  S
O1673     Zr1680   2.374       .  S
O1674     Zr1679   2.385       .  S
O1674     Zr1680   2.370       .  S
O1674      H1709   0.966       .  S
O1675     Zr1678   2.395       .  S
O1675     Zr1695   2.395       .  S
O1675      H1712   0.964       .  S
O1676     Zr1679   2.383       .  S
O1676     Zr1695   2.397       .  S
Zr1677     O1702   2.441       .  S
Zr1677     O1696   2.435       .  S
Zr1677     O1704   2.431       .  S
Zr1677     O1692   2.436       .  S
Zr1677     O1683   2.401       .  S
Zr1677     O1684   2.404       .  S
Zr1677     O1685   2.379       .  S
Zr1677     O1686   2.381       .  S
Zr1678     O1697   2.435       .  S
Zr1678     O1690   2.436       .  S
Zr1678     O1691   2.423       .  S
Zr1678     O1684   2.393       .  S
Zr1678     O1685   2.384       .  S
Zr1679     O1681   2.433       .  S
Zr1679     O1703   2.435       .  S
Zr1679     O1705   2.410       .  S
Zr1679     O1683   2.389       .  S
Zr1679     O1686   2.382       .  S
Zr1680     O1706   2.436       .  S
Zr1680     O1707   2.436       .  S
Zr1680     O1682   2.437       .  S
Zr1680     O1683   2.397       .  S
Zr1680     O1684   2.395       .  S
O1681      H1718   0.990       .  S
O1682      H1713   0.990       .  S
O1682      H1727   0.990       .  S
O1684      H1710   0.964       .  S
O1685     Zr1695   2.373       .  S
O1686     Zr1695   2.370       .  S
O1686      H1711   0.964       .  S
C1687      C1753   1.472       .  S
C1688      C2098   1.484       .  S
C1689      C2114   1.494       .  S
O1690      H1726   0.990       .  S
O1691      C1693   1.284       .  A
O1692      C1693   1.285       .  A
C1693      C2130   1.490       .  S
O1694     Zr1695   2.440       .  S
O1694      H1723   0.990       .  S
Zr1695     O1698   2.437       .  S
Zr1695     O1699   2.440       .  S
Zr1695     O1700   2.430       .  S
O1696      C1701   1.285       .  A
O1697      H1714   0.990       .  S
O1697      H1729   0.990       .  S
O1698      H1715   0.990       .  S
O1699      H1719   0.990       .  S
O1699      H1728   0.990       .  S
O1700      C1701   1.285       .  A
C1701      C1767   1.474       .  S
O1702      H1721   0.990       .  S
O1702      H1725   0.989       .  S
O1703      H1717   0.990       .  S
O1703      H1724   0.990       .  S
O1704      C1708   1.284       .  A
O1705      C1708   1.280       .  A
O1706      H1716   0.990       .  S
O1707      H1720   0.990       .  S
C1708      C2197   1.468       .  S
Zr1731     O1732   2.435       .  S
Zr1731     O1733   2.437       .  S
Zr1731     O1734   2.441       .  S
Zr1731     O1737   2.429       .  S
Zr1731     O1739   2.382       .  S
Zr1731     O1740   2.380       .  S
O1732      H1788   0.990       .  S
O1732      H1796   0.989       .  S
O1733      C1753   1.285       .  A
O1734      C1755   1.286       .  A
O1735      C1754   1.281       .  A
O1736      C1755   1.282       .  A
O1737      C1754   1.283       .  A
O1738     Zr1746   2.420       .  S
O1738      C1753   1.282       .  A
O1739     Zr1746   2.376       .  S
O1740     Zr1746   2.370       .  S
O1740      H1775   0.966       .  S
O1741     Zr1744   2.400       .  S
O1741     Zr1761   2.394       .  S
O1741      H1778   0.966       .  S
O1742     Zr1745   2.389       .  S
O1742     Zr1761   2.398       .  S
Zr1743     O1768   2.441       .  S
Zr1743     O1762   2.438       .  S
Zr1743     O1770   2.432       .  S
Zr1743     O1758   2.429       .  S
Zr1743     O1751   2.379       .  S
Zr1743     O1752   2.378       .  S
Zr1744     O1763   2.435       .  S
Zr1744     O1757   2.429       .  S
Zr1744     O1751   2.384       .  S
Zr1745     O1747   2.434       .  S
Zr1745     O1771   2.407       .  S
Zr1745     O1752   2.380       .  S
Zr1746     O1772   2.435       .  S
Zr1746     O1773   2.435       .  S
Zr1746     O1748   2.436       .  S
Zr1746     O1749   2.395       .  S
Zr1746     O1750   2.389       .  S
O1747      H1784   0.990       .  S
O1748      H1779   0.990       .  S
O1748      H1793   0.990       .  S
O1750      H1776   0.966       .  S
O1751     Zr1761   2.372       .  S
O1752     Zr1761   2.371       .  S
O1752      H1777   0.966       .  S
C1754      C2069   1.466       .  S
C1755      C2053   1.483       .  S
O1756      H1792   0.990       .  S
O1757      C1759   1.286       .  A
O1758      C1759   1.284       .  A
C1759      C2181   1.490       .  S
O1760     Zr1761   2.439       .  S
O1760      H1789   0.990       .  S
Zr1761     O1764   2.437       .  S
Zr1761     O1765   2.439       .  S
Zr1761     O1766   2.426       .  S
O1762      C1767   1.286       .  A
O1763      H1780   0.990       .  S
O1763      H1795   0.990       .  S
O1764      H1781   0.990       .  S
O1765      H1785   0.990       .  S
O1765      H1794   0.990       .  S
O1766      C1767   1.284       .  A
O1768      H1787   0.989       .  S
O1768      H1791   0.990       .  S
O1769      H1783   0.990       .  S
O1769      H1790   0.990       .  S
O1770      C1774   1.284       .  A
O1771      C1774   1.280       .  A
O1772      H1782   0.990       .  S
O1773      H1786   0.990       .  S
C1774      C2085   1.469       .  S
C1797      C1798   1.412       .  A
C1797      C1802   1.397       .  A
C1797      C2082   1.475       .  S
C1798      C1799   1.398       .  A
C1798      C2133   1.476       .  S
C1799      C1800   1.399       .  A
C1799      H1804   1.084       .  S
C1800      C1801   1.412       .  A
C1800      C2018   1.474       .  S
C1801      C1802   1.397       .  A
C1801      C2037   1.476       .  S
C1802      H1803   1.084       .  S
Zr1805     O1806   2.439       .  S
Zr1805     O1807   2.435       .  S
Zr1805     O1808   2.435       .  S
Zr1805     O1811   2.436   1_455  S
Zr1805     O1813   2.381       .  S
Zr1805     O1814   2.381   1_455  S
Zr1805     O1815   2.407       .  S
Zr1805     O1816   2.403   1_455  S
O1806      H1862   0.990       .  S
O1806      H1870   0.990       .  S
O1807      C1827   1.284       .  A
O1808      C1829   1.285       .  A
O1809     Zr1819   2.420       .  S
O1809      C1828   1.282       .  A
O1810     Zr1818   2.415       .  S
O1810      C1829   1.281       .  A
O1811      C1828   1.286       .  A
O1812      C1827   1.284       .  A
O1813     Zr1818   2.393       .  S
O1814     Zr1819   2.390       .  S
O1814      H1849   0.966       .  S
O1815     Zr1818   2.401       .  S
O1815     Zr1835   2.392       .  S
O1815      H1852   0.966       .  S
O1816     Zr1819   2.396       .  S
O1816     Zr1835   2.397   1_655  S
Zr1817     O1842   2.434       .  S
Zr1817     O1836   2.441       .  S
Zr1817     O1844   2.430   1_455  S
Zr1817     O1832   2.421       .  S
Zr1817     O1823   2.397   1_455  S
Zr1817     O1824   2.401       .  S
Zr1818     O1837   2.434       .  S
Zr1818     O1830   2.436       .  S
Zr1818     O1831   2.440   1_556  S
Zr1818     O1825   2.380       .  S
Zr1819     O1821   2.435       .  S
Zr1819     O1826   2.379       .  S
Zr1820     O1846   2.436   1_455  S
Zr1820     O1847   2.434       .  S
Zr1820     O1822   2.437       .  S
Zr1820     O1823   2.397   1_455  S
Zr1820     O1824   2.393       .  S
O1821      H1858   0.990       .  S
O1822      H1853   0.990       .  S
O1822      H1867   0.990       .  S
O1824      H1850   0.966       .  S
O1825     Zr1835   2.372       .  S
O1826     Zr1835   2.374   1_655  S
O1826      H1851   0.966       .  S
C1827      C1907   1.474       .  S
C1828      C2162   1.475       .  S
C1829      C2021   1.479       .  S
O1830      H1866   0.990   1_556  S
O1832      C1833   1.282       .  A
C1833      C2005   1.493       .  S
O1834     Zr1835   2.439       .  S
O1834      H1863   0.990       .  S
Zr1835     O1838   2.437       .  S
Zr1835     O1839   2.439   1_455  S
Zr1835     O1840   2.425       .  S
O1837      H1854   0.990       .  S
O1837      H1869   0.990       .  S
O1838      H1855   0.990       .  S
O1839      H1859   0.990       .  S
O1839      H1868   0.990       .  S
O1840      C1841   1.284       .  A
C1841      C1893   1.475       .  S
O1842      H1861   0.988       .  S
O1842      H1865   0.990       .  S
O1843      H1857   0.990       .  S
O1843      H1864   0.989       .  S
O1844      C1848   1.284       .  A
O1845      C1848   1.285       .  A
O1846      H1856   0.990       .  S
O1847      H1860   0.989       .  S
C1848      C1989   1.488       .  S
Zr1871     O1872   2.436       .  S
Zr1871     O1873   2.438       .  S
Zr1871     O1874   2.434   1_455  S
Zr1871     O1877   2.422       .  S
O1872      H1928   0.989       .  S
O1872      H1936   0.990       .  S
O1874      C1895   1.284       .  A
O1875     Zr1885   2.416       .  S
O1876      C1895   1.286       .  A
O1877      C1894   1.284       .  A
O1878     Zr1886   2.429       .  S
O1878      C1893   1.284       .  A
O1879     Zr1884   2.385       .  S
O1879     Zr1886   2.370   1_655  S
O1880     Zr1885   2.388       .  S
O1880     Zr1886   2.369       .  S
O1880      H1915   0.966       .  S
O1881     Zr1901   2.392   1_655  S
O1881      H1918   0.966       .  S
O1882     Zr1901   2.392       .  S
Zr1883     O1908   2.441       .  S
Zr1883     O1902   2.442       .  S
Zr1883     O1910   2.426       .  S
Zr1883     O1898   2.416   1_455  S
Zr1883     O1891   2.379   1_455  S
Zr1883     O1892   2.375       .  S
Zr1884     O1896   2.436       .  S
Zr1884     O1890   2.392       .  S
Zr1885     O1909   2.437       .  S
Zr1885     O1889   2.384       .  S
Zr1886     O1912   2.435       .  S
Zr1886     O1913   2.436       .  S
Zr1886     O1888   2.437   1_455  S
Zr1886     O1889   2.403       .  S
Zr1886     O1890   2.394   1_455  S
O1887      H1924   0.990       .  S
O1888      H1919   0.990       .  S
O1888      H1933   0.990       .  S
O1890      H1916   0.966       .  S
O1892      H1917   0.966       .  S
C1894      C1970   1.467       .  S
C1895      C1954   1.495       .  S
O1896      H1932   0.990       .  S
O1897      C1899   1.287       .  A
O1898      C1899   1.281       .  A
C1899      C2149   1.494       .  S
O1900     Zr1901   2.439       .  S
O1900      H1929   0.990       .  S
Zr1901     O1904   2.437   1_455  S
Zr1901     O1905   2.439       .  S
O1902      C1907   1.287       .  A
O1903      H1920   0.990       .  S
O1903      H1935   0.990       .  S
O1904      H1921   0.990       .  S
O1905      H1925   0.990       .  S
O1905      H1934   0.990       .  S
O1906      C1907   1.283       .  A
O1908      H1927   0.990       .  S
O1908      H1931   0.990   1_455  S
O1909      H1923   0.990       .  S
O1909      H1930   0.990       .  S
O1910      C1914   1.283       .  A
O1911      C1914   1.283       .  A
O1912      H1922   0.990       .  S
O1913      H1926   0.990       .  S
C1914      C2034   1.471       .  S
C1937      C1938   1.412       .  A
C1937      C1942   1.399       .  A
C1937      C2117   1.478       .  S
C1938      C1939   1.392       .  A
C1938      C2066   1.471       .  S
C1939      C1940   1.392       .  A
C1939      H1944   1.084       .  S
C1940      C1941   1.413       .  A
C1940      C1973   1.472       .  S
C1941      C1942   1.399       .  A
C1941      C2002   1.477       .  S
C1942      H1943   1.084       .  S
C1945      C1946   1.411       .  A
C1945      C1950   1.398       .  A
C1945      C2050   1.475       .  S
C1946      C1947   1.396       .  A
C1946      C2101   1.475       .  S
C1947      C1948   1.398       .  A
C1947      H1952   1.084       .  S
C1948      C1949   1.417       .  A
C1948      C1986   1.479       .  S
C1949      C1950   1.401       .  A
C1949      C1957   1.481       .  S
C1950      H1951   1.084       .  S
C1953      C1954   1.411       .  A
C1953      C1958   1.402       .  A
C1953      H1960   1.083       .  S
C1954      C1955   1.423       .  A
C1955      C1956   1.402       .  A
C1955      C1962   1.505       .  S
C1956      C1957   1.397       .  A
C1956      H1961   1.083       .  S
C1957      C1958   1.409       .  A
C1958      C1959   1.508       .  S
C1959      H1963   1.111       .  S
C1959      H1964   1.109       .  S
C1959      H1965   1.105       .  S
C1962      H1966   1.109       .  S
C1962      H1967   1.109       .  S
C1962      H1968   1.111       .  S
C1969      C1970   1.402       .  A
C1969      C1974   1.399       .  A
C1969      H1976   1.084       .  S
C1970      C1971   1.414       .  A
C1971      C1972   1.397       .  A
C1972      C1973   1.399       .  A
C1972      H1977   1.083       .  S
C1973      C1974   1.412       .  A
C1974      C1975   1.509       .  S
C1975      H1979   1.111       .  S
C1975      H1980   1.109       .  S
C1975      H1981   1.109       .  S
C1978      H1982   1.108       .  S
C1978      H1983   1.110       .  S
C1978      H1984   1.111       .  S
C1985      C1986   1.397       .  A
C1985      C1990   1.401       .  A
C1985      H1992   1.084       .  S
C1986      C1987   1.410       .  A
C1987      C1988   1.403       .  A
C1987      C1994   1.506       .  S
C1988      C1989   1.408       .  A
C1988      H1993   1.084       .  S
C1989      C1990   1.420       .  A
C1990      C1991   1.505       .  S
C1991      H1995   1.111       .  S
C1991      H1996   1.109       .  S
C1991      H1997   1.108       .  S
C1994      H1998   1.104       .  S
C1994      H1999   1.110       .  S
C1994      H2000   1.111       .  S
C2001      C2002   1.396       .  A
C2001      C2006   1.397       .  A
C2001      H2008   1.082       .  S
C2002      C2003   1.407       .  A
C2003      C2004   1.403       .  A
C2003      C2010   1.507       .  S
C2004      C2005   1.412       .  A
C2005      C2006   1.425       .  A
C2006      C2007   1.508       .  S
C2007      H2011   1.111       .  S
C2007      H2012   1.105       .  S
C2007      H2013   1.110       .  S
C2010      H2014   1.109       .  S
C2010      H2015   1.110       .  S
C2017      C2018   1.398       .  A
C2017      C2022   1.399       .  A
C2017      H2024   1.085       .  S
C2018      C2019   1.410       .  A
C2019      C2020   1.401       .  A
C2019      C2026   1.505       .  S
C2020      C2021   1.406       .  A
C2020      H2025   1.084       .  S
C2021      C2022   1.418       .  A
C2022      C2023   1.508       .  S
C2023      H2027   1.111       .  S
C2023      H2028   1.111       .  S
C2023      H2029   1.109       .  S
C2026      H2030   1.110       .  S
C2026      H2031   1.108       .  S
C2026      H2032   1.110       .  S
C2033      C2034   1.404       .  A
C2033      C2038   1.402       .  A
C2033      H2040   1.084       .  S
C2034      C2035   1.412       .  A
C2035      C2036   1.399       .  A
C2035      C2042   1.507       .  S
C2036      C2037   1.401       .  A
C2036      H2041   1.084       .  S
C2037      C2038   1.409       .  A
C2038      C2039   1.506       .  S
C2039      H2043   1.111       .  S
C2039      H2044   1.110       .  S
C2039      H2045   1.106       .  S
C2042      H2046   1.108       .  S
C2042      H2047   1.111       .  S
C2042      H2048   1.111       .  S
C2049      C2050   1.397       .  A
C2049      C2054   1.399       .  A
C2049      H2056   1.084       .  S
C2050      C2051   1.408       .  A
C2051      C2052   1.403       .  A
C2051      C2058   1.506       .  S
C2052      C2053   1.408       .  A
C2052      H2057   1.084       .  S
C2053      C2054   1.417       .  A
C2054      C2055   1.504       .  S
C2055      H2059   1.111       .  S
C2055      H2060   1.110       .  S
C2055      H2061   1.106       .  S
C2058      H2062   1.110       .  S
C2058      H2063   1.105       .  S
C2058      H2064   1.111       .  S
C2065      C2066   1.399       .  A
C2065      C2070   1.396       .  A
C2065      H2072   1.083       .  S
C2066      C2067   1.410       .  A
C2067      C2068   1.401       .  A
C2067      C2074   1.507       .  S
C2068      C2069   1.403       .  A
C2068      H2073   1.084       .  S
C2069      C2070   1.413       .  A
C2070      C2071   1.506       .  S
C2071      H2075   1.111       .  S
C2071      H2076   1.107       .  S
C2071      H2077   1.111       .  S
C2074      H2078   1.109       .  S
C2074      H2079   1.110       .  S
C2074      H2080   1.111       .  S
C2081      C2082   1.398       .  A
C2081      C2086   1.397       .  A
C2081      H2088   1.081       .  S
C2082      C2083   1.412       .  A
C2083      C2084   1.402       .  A
C2083      C2090   1.507       .  S
C2084      C2085   1.403       .  A
C2084      H2089   1.084       .  S
C2085      C2086   1.414       .  A
C2086      C2087   1.508       .  S
C2087      H2091   1.111       .  S
C2087      H2092   1.108       .  S
C2087      H2093   1.111       .  S
C2090      H2094   1.110       .  S
C2090      H2095   1.109       .  S
C2090      H2096   1.111       .  S
C2097      C2098   1.407       .  A
C2097      C2102   1.399       .  A
C2097      H2104   1.084       .  S
C2098      C2099   1.420       .  A
C2099      C2100   1.401       .  A
C2099      C2106   1.508       .  S
C2100      C2101   1.398       .  A
C2100      H2105   1.083       .  S
C2101      C2102   1.410       .  A
C2102      C2103   1.508       .  S
C2103      H2107   1.110       .  S
C2103      H2108   1.108       .  S
C2103      H2109   1.110       .  S
C2106      H2110   1.109       .  S
C2106      H2111   1.110       .  S
C2106      H2112   1.111       .  S
C2113      C2114   1.411       .  A
C2113      C2118   1.401       .  A
C2113      H2120   1.083       .  S
C2114      C2115   1.423       .  A
C2115      C2116   1.400       .  A
C2115      C2122   1.505       .  S
C2116      C2117   1.397       .  A
C2116      H2121   1.083       .  S
C2117      C2118   1.409       .  A
C2118      C2119   1.508       .  S
C2119      H2123   1.111       .  S
C2119      H2124   1.109       .  S
C2119      H2125   1.110       .  S
C2122      H2126   1.107       .  S
C2122      H2127   1.110       .  S
C2122      H2128   1.111       .  S
C2129      C2130   1.411       .  A
C2129      C2134   1.403       .  A
C2129      H2136   1.084       .  S
C2130      C2131   1.421       .  A
C2131      C2132   1.400       .  A
C2131      C2138   1.506       .  S
C2132      C2133   1.397       .  A
C2132      H2137   1.083       .  S
C2133      C2134   1.407       .  A
C2134      C2135   1.507       .  S
C2135      H2139   1.111       .  S
C2135      H2140   1.110       .  S
C2135      H2141   1.108       .  S
C2138      H2142   1.109       .  S
C2138      H2143   1.109       .  S
C2138      H2144   1.111       .  S
C2145      C2146   1.394       .  A
C2145      C2150   1.396       .  A
C2145      H2152   1.083       .  S
C2146      C2147   1.407       .  A
C2147      C2148   1.403       .  A
C2147      C2154   1.507       .  S
C2148      C2149   1.412       .  A
C2148      H2153   1.083       .  S
C2149      C2150   1.426       .  A
C2150      C2151   1.508       .  S
C2151      H2155   1.111       .  S
C2151      H2156   1.106       .  S
C2151      H2157   1.110       .  S
C2154      H2158   1.109       .  S
C2154      H2159   1.110       .  S
C2154      H2160   1.110       .  S
C2161      C2162   1.403       .  A
C2161      C2166   1.403       .  A
C2161      H2168   1.084       .  S
C2162      C2163   1.415       .  A
C2163      C2164   1.400       .  A
C2163      C2170   1.506       .  S
C2164      C2165   1.400       .  A
C2164      H2169   1.084       .  S
C2165      C2166   1.413       .  A
C2166      C2167   1.508       .  S
C2167      H2171   1.111       .  S
C2167      H2172   1.109       .  S
C2167      H2173   1.109       .  S
C2170      H2174   1.108       .  S
C2170      H2175   1.110       .  S
C2170      H2176   1.111       .  S
C2177      C2178   1.397       .  A
C2177      C2182   1.401       .  A
C2177      H2184   1.083       .  S
C2178      C2179   1.409       .  A
C2179      C2180   1.402       .  A
C2179      C2186   1.508       .  S
C2180      C2181   1.409       .  A
C2180      H2185   1.084       .  S
C2181      C2182   1.422       .  A
C2182      C2183   1.506       .  S
C2183      H2187   1.111       .  S
C2183      H2188   1.108       .  S
C2183      H2189   1.109       .  S
C2186      H2190   1.109       .  S
C2186      H2191   1.109       .  S
C2186      H2192   1.111       .  S
C2193      C2194   1.398       .  A
C2193      C2198   1.396       .  A
C2193      H2200   1.082       .  S
C2194      C2195   1.409       .  A
C2195      C2196   1.402       .  A
C2195      C2202   1.506       .  S
C2196      C2197   1.404       .  A
C2196      H2201   1.084       .  S
C2197      C2198   1.413       .  A
C2198      C2199   1.507       .  S
C2199      H2203   1.111       .  S
C2199      H2204   1.108       .  S
C2199      H2205   1.110       .  S
C2202      H2206   1.110       .  S
C2202      H2207   1.109       .  S
C2202      H2208   1.111       .  S
