geometry optimzed in LAMMPS
_audit_creation_date              2020-11-30 
_audit_creation_method            'lammps2cif' 
_symmetry_space_group_name_H-M    'P1' 
_symmetry_Int_Tables_number       1 
_symmetry_cell_setting            triclinic 
loop_ 
_symmetry_equiv_pos_as_xyz 
  x,y,z 
_cell_length_a                    32.01362298724344 
_cell_length_b                    41.770606759717616 
_cell_length_c                    22.26653570240877 
_cell_angle_alpha                 90.58020750359077 
_cell_angle_beta                  90.17030945916198 
_cell_angle_gamma                 89.9951245198805 
loop_ 
_atom_site_label 
_atom_site_type_symbol 
_atom_site_fract_x 
_atom_site_fract_y 
_atom_site_fract_z 
_atom_site_charge 
In1        In  0.89869521  0.00116497  0.49952414     1.36870
C2          C  0.94743073  0.00401859  0.40248868     0.76930
O3          O  0.93449228  0.02565321  0.07380817    -0.61520
O4          O  0.93592813  0.47499822  0.07062660    -0.52430
C5          C  0.83823601  0.04155195  0.02895402     0.69590
O6          O  0.86847621  0.05004658  0.99640315    -0.47290
C7          C  0.84550529  0.45651987  0.46261873     0.74300
O8          O  0.92975585  0.02848167  0.42422671    -0.59150
O9          O  0.86663075  0.45343523  0.51030022    -0.49240
O10         O  0.94215429  0.47886720  0.43217312    -0.55580
C11         C  0.94676906  0.50023012  0.09796287     0.84480
O12         O  0.84004430  0.01317038  0.04733935    -0.57470
O13         O  0.85200056  0.48216547  0.43477523    -0.60760
In14       In  0.02115470  0.00296590  0.25001560     1.36870
C15         C  0.97193514  0.00421385  0.34681171     0.76930
O16         O  0.97703059  0.02552210  0.18437820    -0.61520
O17         O  0.98995113  0.47597688  0.17348107    -0.52430
C18         C  0.07552379  0.04750771  0.21863157     0.69590
O19         O  0.05611557  0.04890760  0.26783441    -0.47290
C20         C  0.07751729  0.46009820  0.28312021     0.74300
O21         O  0.98340508  0.02942412  0.32096050    -0.59150
O22         O  0.05160793  0.45415333  0.24156672    -0.49240
O23         O  0.98348120  0.47873226  0.32126008    -0.55580
C24         C  0.97171773  0.50043191  0.15342517     0.84480
O25         O  0.06690211  0.02355529  0.18603106    -0.57470
O26         O  0.07518929  0.48793590  0.30502152    -0.60760
In27       In  0.62717485  0.12500859  0.17232459     1.36870
C28         C  0.62277711  0.06705267  0.21929927     0.76930
O29         O  0.56107778  0.13193859  0.20115200    -0.61520
O30         O  0.57388008  0.12653612  0.10754802    -0.52430
C31         C  0.64109293  0.18498725  0.20680058     0.69590
O32         O  0.64257079  0.16184314  0.24315288    -0.47290
C33         C  0.69420485  0.11053675  0.10923375     0.74300
O34         O  0.63325676  0.09122474  0.25081196    -0.59150
O35         O  0.65899613  0.11490083  0.08480261    -0.49240
O36         O  0.61400074  0.07327871  0.16553697    -0.55580
C37         C  0.54673466  0.12972019  0.14838428     0.84480
O38         O  0.63345681  0.17680626  0.15322152    -0.57470
O39         O  0.69578152  0.11672670  0.16475882    -0.60760
In40       In  0.28901367  0.12540838  0.07781547     1.36870
C41         C  0.29069152  0.06617389  0.03512761     0.76930
O42         O  0.35547111  0.12445178  0.05058730    -0.61520
O43         O  0.34183295  0.13390980  0.14283444    -0.52430
C44         C  0.27872385  0.18355834  0.03455634     0.69590
O45         O  0.27645981  0.15872936  0.00166171    -0.47290
C46         C  0.21785710  0.11589844  0.13483527     0.74300
O47         O  0.28583333  0.09013659  0.00137974    -0.59150
O48         O  0.25257248  0.11667864  0.16226508    -0.49240
O49         O  0.29518925  0.07313179  0.09005718    -0.55580
C50         C  0.36940146  0.13035010  0.10256422     0.84480
O51         O  0.28501008  0.17807284  0.08954146    -0.57470
O52         O  0.22009831  0.12229672  0.07966020    -0.60760
In53       In  0.62845412  0.37496544  0.33372996     1.36870
C54         C  0.62576054  0.43433661  0.29425845     0.76930
O55         O  0.56260598  0.37526415  0.30382030    -0.61520
O56         O  0.57477001  0.36723752  0.39702480    -0.52430
C57         C  0.64092320  0.31600200  0.29376053     0.69590
O58         O  0.64065367  0.33994688  0.25919233    -0.47290
C59         C  0.70202029  0.38603076  0.38279949     0.74300
O60         O  0.62949494  0.41034474  0.25929761    -0.59150
O61         O  0.66928654  0.38410835  0.41471438    -0.49240
O62         O  0.62245642  0.42737396  0.34917491    -0.55580
C63         C  0.54790033  0.37014494  0.35533647     0.84480
O64         O  0.63450513  0.32265102  0.34843782    -0.57470
O65         O  0.69666946  0.37984422  0.32769219    -0.60760
In66       In  0.28946110  0.37403764  0.41601761     1.36870
C67         C  0.29437006  0.43301515  0.45904540     0.76930
O68         O  0.35537991  0.36727938  0.44421483    -0.61520
O69         O  0.34260132  0.37283104  0.35052219    -0.52430
C70         C  0.27802974  0.31523417  0.45473284     0.69590
O71         O  0.27886065  0.33938131  0.48949372    -0.47290
C72         C  0.21620633  0.38599985  0.36720867     0.74300
O73         O  0.28708957  0.40930483  0.49252917    -0.59150
O74         O  0.24818426  0.38101362  0.33481977    -0.49240
O75         O  0.29980541  0.42592034  0.40442617    -0.55580
C76         C  0.36972192  0.36953530  0.39171126     0.84480
O77         O  0.28186045  0.32171138  0.39958473    -0.57470
O78         O  0.22179036  0.38188497  0.42272060    -0.60760
C79         C  0.50243384  0.36878119  0.36496781    -0.06780
C80         C  0.47780752  0.39275313  0.33890755    -0.17910
C81         C  0.43456481  0.39359643  0.34716227     0.10420
C82         C  0.41503612  0.36934136  0.38056757    -0.06700
C83         C  0.43958535  0.34524784  0.40651511    -0.17940
C84         C  0.48297851  0.34444411  0.39833558     0.10450
S85         S  0.40647485  0.42739635  0.31761199    -0.32900
S86         S  0.51137869  0.31102888  0.42881920    -0.32910
H87         H  0.54066000  0.30889219  0.38195510     0.28460
H88         H  0.38061072  0.43132403  0.36808668     0.28460
H89         H  0.49258937  0.41163486  0.31354876     0.19050
H90         H  0.42472965  0.32657577  0.43230078     0.19050
C91         C  0.29127906  0.03237469  0.01382844    -0.06780
C92         C  0.29441529  0.00823265  0.05731660    -0.17910
C93         C  0.29667922  0.47583617  0.04131509     0.10420
C94         C  0.29506207  0.46679225  0.48007637    -0.06700
C95         C  0.29224903  0.49089288  0.43653638    -0.17940
C96         C  0.28993991  0.02329521  0.45250685     0.10450
S97         S  0.30288985  0.44762512  0.10135684    -0.32900
S98         S  0.28519910  0.05146586  0.39217941    -0.32910
H99         H  0.24755543  0.06435418  0.41424664     0.28460
H100        H  0.33568935  0.43097678  0.07294043     0.28460
H101        H  0.29572375  0.01456051  0.10456987     0.19050
H102        H  0.29080699  0.48448609  0.38931564     0.19050
C103        C  0.27515553  0.21674649  0.01188974    -0.06780
C104        C  0.27103024  0.24164608  0.05438571    -0.17910
C105        C  0.27109899  0.27377280  0.03754598     0.10420
C106        C  0.27444921  0.28175919  0.47610497    -0.06700
C107        C  0.27640708  0.25679066  0.43330871    -0.17940
C108        C  0.27739894  0.22463603  0.45033453     0.10450
S109        S  0.26755343  0.30305018  0.09724156    -0.32900
S110        S  0.28358573  0.19527107  0.39123929    -0.32910
H111        H  0.31945509  0.18168219  0.41735785     0.28460
H112        H  0.30752482  0.31554403  0.08557959     0.28460
H113        H  0.26878024  0.23615825  0.10170775     0.19050
H114        H  0.27880249  0.26228579  0.38601365     0.19050
C115        C  0.64629364  0.21895742  0.22619675    -0.06780
C116        C  0.65511867  0.22544863  0.28696366    -0.17910
C117        C  0.65630292  0.25682655  0.30958428     0.10420
C118        C  0.64662668  0.28271232  0.27138329    -0.06700
C119        C  0.63976538  0.27639886  0.21016970    -0.17940
C120        C  0.64024104  0.24515553  0.18700476     0.10450
S121        S  0.67122792  0.26195305  0.38720884    -0.32900
S122        S  0.63191138  0.24085919  0.10728650    -0.32910
H123        H  0.66795538  0.22205444  0.09885985     0.28460
H124        H  0.69708223  0.28853132  0.37640876     0.28460
H125        H  0.66109322  0.20590343  0.31743282     0.19050
H126        H  0.63319429  0.29595880  0.17996992     0.19050
C127        C  0.62527009  0.46814011  0.27390854    -0.06780
C128        C  0.62204345  0.49266311  0.31765942    -0.17910
C129        C  0.62026626  0.02504032  0.30188595     0.10420
C130        C  0.62222004  0.03355026  0.24076508    -0.06700
C131        C  0.62496131  0.00906178  0.19715134    -0.17940
C132        C  0.62716336  0.47682152  0.21275956     0.10450
S133        S  0.61385728  0.05396361  0.36170687    -0.32900
S134        S  0.63299464  0.44838962  0.15200951    -0.32910
H135        H  0.67030983  0.43569251  0.17543105     0.28460
H136        H  0.58316694  0.07170130  0.33123442     0.28460
H137        H  0.62032755  0.48665143  0.36478394     0.19050
H138        H  0.62651487  0.01503989  0.15003546     0.19050
C139        C  0.50154238  0.12998415  0.13591237    -0.06780
C140        C  0.47611008  0.15211901  0.16649536    -0.17910
C141        C  0.43302293  0.15351794  0.15553205     0.10420
C142        C  0.41470104  0.13166534  0.11445098    -0.06700
C143        C  0.44025473  0.10968058  0.08377068    -0.17940
C144        C  0.48318565  0.10828664  0.09463600     0.10450
S145        S  0.40366827  0.18473464  0.19264464    -0.32900
S146        S  0.51225615  0.07689725  0.05744428    -0.32910
H147        H  0.53688228  0.06945532  0.10783204     0.28460
H148        H  0.37709358  0.19074067  0.14357185     0.28460
H149        H  0.49007397  0.16898545  0.19792977     0.19050
H150        H  0.42642453  0.09261435  0.05257401     0.19050
C151        C  0.17636872  0.39940923  0.34475047    -0.06780
C152        C  0.15338119  0.41823943  0.38549357    -0.17910
C153        C  0.11951228  0.43654331  0.36691176     0.10420
C154        C  0.10821473  0.43676061  0.30560760    -0.06700
C155        C  0.12901190  0.41619606  0.26526701    -0.17940
C156        C  0.16279776  0.39730458  0.28435107     0.10450
S157        S  0.09233673  0.45935752  0.42398237    -0.32900
S158        S  0.18702440  0.37111225  0.22997010    -0.32910
H159        H  0.19639927  0.34689171  0.27136969     0.28460
H160        H  0.05244189  0.45499478  0.39847691     0.28460
H161        H  0.16274655  0.41978958  0.43222711     0.19050
H162        H  0.11985692  0.41563444  0.21840674     0.19050
C163        C  0.17793260  0.10528815  0.16203656    -0.06660
C164        C  0.14440439  0.09894847  0.12262547    -0.17910
C165        C  0.10915117  0.08219412  0.14129137     0.10420
C166        C  0.10699434  0.07117975  0.20076109    -0.06700
C167        C  0.13840886  0.07988804  0.24181192    -0.17940
C168        C  0.17367990  0.09704125  0.22329674     0.10450
S169        S  0.06845519  0.07483993  0.08657845    -0.32900
S170        S  0.21242169  0.10646032  0.27956234    -0.32910
H171        H  0.21971164  0.13752919  0.25807034     0.28460
H172        H  0.03545088  0.07481721  0.12816592     0.28460
H173        H  0.14630778  0.10571666  0.07589016     0.19050
H174        H  0.13648545  0.07193414  0.28788417     0.19050
C175        C  0.81410878  0.43303820  0.44176468    -0.06780
C176        C  0.78958791  0.41698723  0.48419175    -0.17910
C177        C  0.75431495  0.39924035  0.46646486     0.10420
C178        C  0.74287710  0.39796175  0.40510976    -0.06700
C179        C  0.76950018  0.41195680  0.36267796    -0.17940
C180        C  0.80490953  0.42910591  0.38012138     0.10450
S181        S  0.72527869  0.37909978  0.02401333    -0.32900
S182        S  0.83655214  0.44586223  0.32126822    -0.32910
H183        H  0.87477742  0.44171905  0.35160080     0.28460
H184        H  0.71538023  0.35231868  0.48783007     0.28460
H185        H  0.79690113  0.41932893  0.03155381     0.19050
H186        H  0.76187986  0.41073674  0.31527965     0.19050
C187        C  0.80204890  0.06198800  0.04295007    -0.06780
C188        C  0.76249089  0.04784133  0.03807167    -0.17910
C189        C  0.72648592  0.06452285  0.05420930     0.10420
C190        C  0.72981616  0.09590836  0.07769886    -0.06700
C191        C  0.76926820  0.11052868  0.08123287    -0.17940
C192        C  0.80544665  0.09399400  0.06348751     0.10450
S193        S  0.67765191  0.04320995  0.04990826    -0.32900
S194        S  0.85492423  0.11410617  0.07227278    -0.32910
H195        H  0.87692551  0.08704789  0.09216284     0.28460
H196        H  0.65753304  0.06712596  0.01655710     0.28460
H197        H  0.75962662  0.02330947  0.02217167     0.19050
H198        H  0.77206550  0.13441925  0.10025446     0.19050
In199      In  0.89869520  0.00116496  0.99952414     1.36870
C200        C  0.94743072  0.00401858  0.90248868     0.76930
O201        O  0.93449229  0.02565321  0.57380817    -0.61520
O202        O  0.93592814  0.47499822  0.57062660    -0.52430
C203        C  0.83823601  0.04155195  0.52895404     0.69590
O204        O  0.86847620  0.05004658  0.49640315    -0.47290
C205        C  0.84550528  0.45651987  0.96261874     0.74300
O206        O  0.92975583  0.02848165  0.92422670    -0.59150
O207        O  0.86663074  0.45343524  0.01030023    -0.49240
O208        O  0.94215428  0.47886720  0.93217313    -0.55580
C209        C  0.94676907  0.50023011  0.59796287     0.84480
O210        O  0.84004432  0.01317039  0.54733938    -0.57470
O211        O  0.85200055  0.48216547  0.93477523    -0.60760
In212      In  0.02115470  0.00296589  0.75001561     1.36870
C213        C  0.97193514  0.00421384  0.84681171     0.76930
O214        O  0.97703060  0.02552209  0.68437820    -0.61520
O215        O  0.98995113  0.47597687  0.67348108    -0.52430
C216        C  0.07552380  0.04750770  0.71863159     0.69590
O217        O  0.05611558  0.04890759  0.76783443    -0.47290
C218        C  0.07751728  0.46009819  0.78312024     0.74300
O219        O  0.98340508  0.02942411  0.82096050    -0.59150
O220        O  0.05160793  0.45415332  0.74156675    -0.49240
O221        O  0.98348119  0.47873226  0.82126008    -0.55580
C222        C  0.97171774  0.50043191  0.65342517     0.84480
O223        O  0.06690212  0.02355528  0.68603108    -0.57470
O224        O  0.07518928  0.48793590  0.80502154    -0.60760
In225      In  0.62717483  0.12500858  0.67232459     1.36870
C226        C  0.62277708  0.06705266  0.71929928     0.76930
O227        O  0.56107777  0.13193859  0.70115198    -0.61520
O228        O  0.57388007  0.12653612  0.60754801    -0.52430
C229        C  0.64109292  0.18498724  0.70680060     0.69590
O230        O  0.64257077  0.16184313  0.74315289    -0.47290
C231        C  0.69420484  0.11053674  0.60923376     0.74300
O232        O  0.63325675  0.09122473  0.75081197    -0.59150
O233        O  0.65899612  0.11490082  0.58480261    -0.49240
O234        O  0.61400071  0.07327870  0.66553698    -0.55580
C235        C  0.54673465  0.12972019  0.64838425     0.84480
O236        O  0.63345681  0.17680625  0.65322154    -0.57470
O237        O  0.69578151  0.11672668  0.66475883    -0.60760
In238      In  0.28901366  0.12540838  0.57781544     1.36870
C239        C  0.29069152  0.06617390  0.53512757     0.76930
O240        O  0.35547110  0.12445179  0.55058726    -0.61520
O241        O  0.34183294  0.13390980  0.64283441    -0.52430
C242        C  0.27872383  0.18355834  0.53455632     0.69590
O243        O  0.27645979  0.15872936  0.50166169    -0.47290
C244        C  0.21785710  0.11589843  0.63483527     0.74300
O245        O  0.28583331  0.09013659  0.50137971    -0.59150
O246        O  0.25257249  0.11667864  0.66226506    -0.49240
O247        O  0.29518925  0.07313179  0.59005714    -0.55580
C248        C  0.36940145  0.13035011  0.60256418     0.84480
O249        O  0.28501007  0.17807284  0.58954143    -0.57470
O250        O  0.22009830  0.12229672  0.57966020    -0.60760
In251      In  0.62845411  0.37496543  0.83372997     1.36870
C252        C  0.62576052  0.43433660  0.79425846     0.76930
O253        O  0.56260597  0.37526414  0.80382032    -0.61520
O254        O  0.57477000  0.36723751  0.89702481    -0.52430
C255        C  0.64092319  0.31600198  0.79376055     0.69590
O256        O  0.64065366  0.33994687  0.75919235    -0.47290
C257        C  0.70202028  0.38603075  0.88279950     0.74300
O258        O  0.62949493  0.41034473  0.75929762    -0.59150
O259        O  0.66928654  0.38410835  0.91471439    -0.49240
O260        O  0.62245641  0.42737395  0.84917492    -0.55580
C261        C  0.54790032  0.37014493  0.85533649     0.84480
O262        O  0.63450511  0.32265101  0.84843784    -0.57470
O263        O  0.69666945  0.37984421  0.82769220    -0.60760
In264      In  0.28946110  0.37403764  0.91601765     1.36870
C265        C  0.29437006  0.43301515  0.95904544     0.76930
O266        O  0.35537991  0.36727937  0.94421486    -0.61520
O267        O  0.34260131  0.37283105  0.85052223    -0.52430
C268        C  0.27802974  0.31523417  0.95473287     0.69590
O269        O  0.27886066  0.33938130  0.98949376    -0.47290
C270        C  0.21620632  0.38599986  0.86720872     0.74300
O271        O  0.28708957  0.40930484  0.99252921    -0.59150
O272        O  0.24818425  0.38101362  0.83481981    -0.49240
O273        O  0.29980540  0.42592034  0.90442621    -0.55580
C274        C  0.36972192  0.36953530  0.89171129     0.84480
O275        O  0.28186044  0.32171139  0.89958476    -0.57470
O276        O  0.22179035  0.38188497  0.92272065    -0.60760
C277        C  0.50243383  0.36878119  0.86496783    -0.06780
C278        C  0.47780751  0.39275314  0.83890760    -0.17910
C279        C  0.43456481  0.39359644  0.84716233     0.10420
C280        C  0.41503612  0.36934136  0.88056760    -0.06700
C281        C  0.43958534  0.34524782  0.90651510    -0.17940
C282        C  0.48297850  0.34444409  0.89833556     0.10450
S283        S  0.40647486  0.42739638  0.81761210    -0.32900
S284        S  0.51137867  0.31102885  0.92881913    -0.32910
H285        H  0.54065999  0.30889218  0.88195504     0.28460
H286        H  0.38061072  0.43132404  0.86808680     0.28460
H287        H  0.49258937  0.41163488  0.81354884     0.19050
H288        H  0.42472964  0.32657574  0.93230075     0.19050
C289        C  0.29127906  0.03237469  0.51382840    -0.06780
C290        C  0.29441517  0.00823265  0.55731658    -0.17910
C291        C  0.29667918  0.47583617  0.54131506     0.10420
C292        C  0.29506207  0.46679225  0.98007641    -0.06700
C293        C  0.29224898  0.49089288  0.93653643    -0.17940
C294        C  0.28993979  0.02329520  0.95250690     0.10450
S295        S  0.30288975  0.44762512  0.60135681    -0.32900
S296        S  0.28519881  0.05146585  0.89217947    -0.32910
H297        H  0.24755520  0.06435418  0.91424692     0.28460
H298        H  0.33568928  0.43097678  0.57294047     0.28460
H299        H  0.29572354  0.01456051  0.60456985     0.19050
H300        H  0.29080690  0.48448609  0.88931568     0.19050
C301        C  0.27515551  0.21674649  0.51188972    -0.06780
C302        C  0.27103028  0.24164609  0.55438569    -0.17910
C303        C  0.27109904  0.27377280  0.53754597     0.10420
C304        C  0.27444921  0.28175919  0.97610499    -0.06700
C305        C  0.27640713  0.25679066  0.93330873    -0.17940
C306        C  0.27739901  0.22463603  0.95033456     0.10450
S307        S  0.26755357  0.30305019  0.59724155    -0.32900
S308        S  0.28358588  0.19527108  0.89123933    -0.32910
H309        H  0.31945521  0.18168220  0.91735798     0.28460
H310        H  0.30752494  0.31554403  0.58557947     0.28460
H311        H  0.26878032  0.23615825  0.60170774     0.19050
H312        H  0.27880258  0.26228579  0.88601368     0.19050
C313        C  0.64629363  0.21895740  0.72619678    -0.06780
C314        C  0.65511863  0.22544862  0.78696370    -0.17910
C315        C  0.65630287  0.25682653  0.80958432     0.10420
C316        C  0.64662667  0.28271230  0.77138332    -0.06700
C317        C  0.63976541  0.27639885  0.71016972    -0.17940
C318        C  0.64024108  0.24515552  0.68700477     0.10450
S319        S  0.67122783  0.26195303  0.88720890    -0.32900
S320        S  0.63191148  0.24085918  0.60728650    -0.32910
H321        H  0.66795547  0.22205441  0.59885992     0.28460
H322        H  0.69708216  0.28853128  0.87640885     0.28460
H323        H  0.66109315  0.20590341  0.81743286     0.19050
H324        H  0.63319436  0.29595879  0.67996993     0.19050
C325        C  0.62527007  0.46814010  0.77390854    -0.06780
C326        C  0.62204345  0.49266310  0.81765943    -0.17910
C327        C  0.62026628  0.02504031  0.80188597     0.10420
C328        C  0.62222001  0.03355025  0.74076509    -0.06700
C329        C  0.62496123  0.00906177  0.69715134    -0.17940
C330        C  0.62716332  0.47682151  0.71275956     0.10450
S331        S  0.61385736  0.05396360  0.86170689    -0.32900
S332        S  0.63299457  0.44838961  0.65200951    -0.32910
H333        H  0.67030978  0.43569250  0.67543101     0.28460
H334        H  0.58316698  0.07170129  0.83123450     0.28460
H335        H  0.62032756  0.48665142  0.86478394     0.19050
H336        H  0.62651475  0.01503988  0.65003546     0.19050
C337        C  0.50154237  0.12998415  0.63591234    -0.06780
C338        C  0.47611007  0.15211900  0.66649534    -0.17910
C339        C  0.43302292  0.15351794  0.65553202     0.10420
C340        C  0.41470103  0.13166534  0.61445094    -0.06700
C341        C  0.44025472  0.10968060  0.58377062    -0.17940
C342        C  0.48318565  0.10828666  0.59463595     0.10450
S343        S  0.40366826  0.18473463  0.69264463    -0.32900
S344        S  0.51225614  0.07689727  0.55744420    -0.32910
H345        H  0.53688226  0.06945532  0.60783197     0.28460
H346        H  0.37709356  0.19074068  0.64357184     0.28460
H347        H  0.49007395  0.16898544  0.69792976     0.19050
H348        H  0.42642453  0.09261436  0.55257394     0.19050
C349        C  0.17636871  0.39940923  0.84475052    -0.06780
C350        C  0.15338119  0.41823944  0.88549361    -0.17910
C351        C  0.11951228  0.43654332  0.86691181     0.10420
C352        C  0.10821472  0.43676061  0.80560764    -0.06700
C353        C  0.12901188  0.41619605  0.76526707    -0.17940
C354        C  0.16279775  0.39730457  0.78435113     0.10450
S355        S  0.09233673  0.45935753  0.92398240    -0.32900
S356        S  0.18702438  0.37111223  0.72997017    -0.32910
H357        H  0.19639926  0.34689170  0.77136976     0.28460
H358        H  0.05244189  0.45499479  0.89847695     0.28460
H359        H  0.16274655  0.41978960  0.93222715     0.19050
H360        H  0.11985690  0.41563443  0.71840679     0.19050
C361        C  0.17793260  0.10528814  0.66203657    -0.06660
C362        C  0.14440439  0.09894848  0.62262549    -0.17910
C363        C  0.10915117  0.08219412  0.64129140     0.10420
C364        C  0.10699435  0.07117974  0.70076112    -0.06700
C365        C  0.13840888  0.07988801  0.74181193    -0.17940
C366        C  0.17367992  0.09704122  0.72329674     0.10450
S367        S  0.06845516  0.07483995  0.58657850    -0.32900
S368        S  0.21242173  0.10646028  0.77956233    -0.32910
H369        H  0.21971168  0.13752915  0.75807037     0.28460
H370        H  0.03545086  0.07481722  0.62816598     0.28460
H371        H  0.14630776  0.10571668  0.57589019     0.19050
H372        H  0.13648548  0.07193410  0.78788418     0.19050
C373        C  0.81410877  0.43303820  0.94176469    -0.06780
C374        C  0.78958791  0.41698723  0.98419176    -0.17910
C375        C  0.75431495  0.39924035  0.96646486     0.10420
C376        C  0.74287709  0.39796174  0.90510977    -0.06700
C377        C  0.76950017  0.41195680  0.86267797    -0.17940
C378        C  0.80490952  0.42910591  0.88012139     0.10450
S379        S  0.72527869  0.37909979  0.52401332    -0.32900
S380        S  0.83655213  0.44586223  0.82126822    -0.32910
H381        H  0.87477741  0.44171904  0.85160080     0.28460
H382        H  0.71538022  0.35231867  0.98783008     0.28460
H383        H  0.79690113  0.41932893  0.53155380     0.19050
H384        H  0.76187985  0.41073673  0.81527965     0.19050
C385        C  0.80204890  0.06198799  0.54295008    -0.06780
C386        C  0.76249089  0.04784131  0.53807175    -0.17910
C387        C  0.72648593  0.06452282  0.55420939     0.10420
C388        C  0.72981615  0.09590835  0.57769887    -0.06700
C389        C  0.76926818  0.11052869  0.58123282    -0.17940
C390        C  0.80544663  0.09399400  0.56348746     0.10450
S391        S  0.67765192  0.04320989  0.54990843    -0.32900
S392        S  0.85492420  0.11410621  0.57227264    -0.32910
H393        H  0.87692551  0.08704795  0.59216274     0.28460
H394        H  0.65753301  0.06712589  0.51655728     0.28460
H395        H  0.75962664  0.02330944  0.52217181     0.19050
H396        H  0.77206547  0.13441926  0.60025435     0.19050
In397      In  0.89869521  0.50116496  0.49952413     1.36870
C398        C  0.94743073  0.50401858  0.40248867     0.76930
O399        O  0.93449228  0.52565321  0.07380816    -0.61520
O400        O  0.93592813  0.97499822  0.07062660    -0.52430
C401        C  0.83823601  0.54155195  0.02895402     0.69590
O402        O  0.86847620  0.55004658  0.99640315    -0.47290
C403        C  0.84550529  0.95651988  0.46261873     0.74300
O404        O  0.92975585  0.52848166  0.42422671    -0.59150
O405        O  0.86663075  0.95343524  0.51030022    -0.49240
O406        O  0.94215428  0.97886721  0.43217313    -0.55580
C407        C  0.94676906  0.00023012  0.09796288     0.84480
O408        O  0.84004430  0.51317039  0.04733935    -0.57470
O409        O  0.85200055  0.98216548  0.43477524    -0.60760
In410      In  0.02115470  0.50296589  0.25001560     1.36870
C411        C  0.97193515  0.50421384  0.34681170     0.76930
O412        O  0.97703060  0.52552210  0.18437819    -0.61520
O413        O  0.98995113  0.97597688  0.17348108    -0.52430
C414        C  0.07552379  0.54750771  0.21863158     0.69590
O415        O  0.05611557  0.54890759  0.26783443    -0.47290
C416        C  0.07751729  0.96009820  0.28312022     0.74300
O417        O  0.98340508  0.52942411  0.32096049    -0.59150
O418        O  0.05160792  0.95415334  0.24156674    -0.49240
O419        O  0.98348120  0.97873227  0.32126008    -0.55580
C420        C  0.97171773  0.00043191  0.15342517     0.84480
O421        O  0.06690211  0.52355530  0.18603106    -0.57470
O422        O  0.07518929  0.98793591  0.30502152    -0.60760
In423      In  0.62717484  0.62500859  0.17232459     1.36870
C424        C  0.62277710  0.56705267  0.21929927     0.76930
O425        O  0.56107778  0.63193860  0.20115200    -0.61520
O426        O  0.57388008  0.62653613  0.10754802    -0.52430
C427        C  0.64109293  0.68498725  0.20680058     0.69590
O428        O  0.64257079  0.66184314  0.24315288    -0.47290
C429        C  0.69420485  0.61053675  0.10923375     0.74300
O430        O  0.63325676  0.59122474  0.25081196    -0.59150
O431        O  0.65899613  0.61490083  0.08480260    -0.49240
O432        O  0.61400073  0.57327871  0.16553697    -0.55580
C433        C  0.54673466  0.62972020  0.14838427     0.84480
O434        O  0.63345681  0.67680626  0.15322153    -0.57470
O435        O  0.69578152  0.61672669  0.16475882    -0.60760
In436      In  0.28901367  0.62540838  0.07781548     1.36870
C437        C  0.29069152  0.56617390  0.03512761     0.76930
O438        O  0.35547110  0.62445178  0.05058730    -0.61520
O439        O  0.34183295  0.63390980  0.14283444    -0.52430
C440        C  0.27872385  0.68355834  0.03455634     0.69590
O441        O  0.27645980  0.65872936  0.00166171    -0.47290
C442        C  0.21785710  0.61589844  0.13483529     0.74300
O443        O  0.28583332  0.59013659  0.00137974    -0.59150
O444        O  0.25257248  0.61667865  0.16226509    -0.49240
O445        O  0.29518924  0.57313179  0.09005718    -0.55580
C446        C  0.36940146  0.63035011  0.10256422     0.84480
O447        O  0.28501008  0.67807284  0.08954145    -0.57470
O448        O  0.22009830  0.62229673  0.07966022    -0.60760
In449      In  0.62845412  0.87496544  0.33372997     1.36870
C450        C  0.62576054  0.93433661  0.29425846     0.76930
O451        O  0.56260598  0.87526415  0.30382031    -0.61520
O452        O  0.57477001  0.86723752  0.39702480    -0.52430
C453        C  0.64092320  0.81600200  0.29376054     0.69590
O454        O  0.64065367  0.83994688  0.25919234    -0.47290
C455        C  0.70202029  0.88603076  0.38279950     0.74300
O456        O  0.62949494  0.91034474  0.25929762    -0.59150
O457        O  0.66928654  0.88410835  0.41471439    -0.49240
O458        O  0.62245643  0.92737396  0.34917492    -0.55580
C459        C  0.54790033  0.87014494  0.35533648     0.84480
O460        O  0.63450513  0.82265102  0.34843783    -0.57470
O461        O  0.69666946  0.87984422  0.32769220    -0.60760
In462      In  0.28946110  0.87403764  0.41601761     1.36870
C463        C  0.29437006  0.93301515  0.45904540     0.76930
O464        O  0.35537991  0.86727938  0.44421483    -0.61520
O465        O  0.34260131  0.87283104  0.35052219    -0.52430
C466        C  0.27802974  0.81523417  0.45473284     0.69590
O467        O  0.27886066  0.83938130  0.48949372    -0.47290
C468        C  0.21620633  0.88599986  0.36720868     0.74300
O469        O  0.28708956  0.90930483  0.49252917    -0.59150
O470        O  0.24818425  0.88101363  0.33481977    -0.49240
O471        O  0.29980541  0.92592034  0.40442617    -0.55580
C472        C  0.36972192  0.86953530  0.39171125     0.84480
O473        O  0.28186044  0.82171138  0.39958472    -0.57470
O474        O  0.22179036  0.88188497  0.42272061    -0.60760
C475        C  0.50243384  0.86878119  0.36496781    -0.06780
C476        C  0.47780751  0.89275312  0.33890752    -0.17910
C477        C  0.43456481  0.89359642  0.34716224     0.10420
C478        C  0.41503612  0.86934136  0.38056756    -0.06700
C479        C  0.43958535  0.84524785  0.40651513    -0.17940
C480        C  0.48297851  0.84444412  0.39833560     0.10450
S481        S  0.40647485  0.92739634  0.31761192    -0.32900
S482        S  0.51137869  0.81102890  0.42881926    -0.32910
H483        H  0.54066000  0.80889219  0.38195516     0.28460
H484        H  0.38061071  0.93132403  0.36808661     0.28460
H485        H  0.49258937  0.91163484  0.31354871     0.19050
H486        H  0.42472966  0.82657578  0.43230082     0.19050
C487        C  0.29127906  0.53237469  0.01382845    -0.06780
C488        C  0.29441527  0.50823265  0.05731661    -0.17910
C489        C  0.29667924  0.97583617  0.04131508     0.10420
C490        C  0.29506207  0.96679225  0.48007637    -0.06700
C491        C  0.29224908  0.99089288  0.43653639    -0.17940
C492        C  0.28993985  0.52329521  0.45250686     0.10450
S493        S  0.30288989  0.94762512  0.10135682    -0.32900
S494        S  0.28519896  0.55146585  0.39217942    -0.32910
H495        H  0.24755532  0.56435418  0.41424675     0.28460
H496        H  0.33568938  0.93097678  0.07294039     0.28460
H497        H  0.29572372  0.51456051  0.10456988     0.19050
H498        H  0.29080708  0.98448610  0.38931564     0.19050
C499        C  0.27515552  0.71674649  0.01188973    -0.06780
C500        C  0.27103019  0.74164608  0.05438569    -0.17910
C501        C  0.27109894  0.77377280  0.03754596     0.10420
C502        C  0.27444922  0.78175919  0.47610496    -0.06700
C503        C  0.27640709  0.75679066  0.43330870    -0.17940
C504        C  0.27739896  0.72463603  0.45033453     0.10450
S505        S  0.26755332  0.80305018  0.09724153    -0.32900
S506        S  0.28358577  0.69527107  0.39123929    -0.32910
H507        H  0.31945512  0.68168219  0.41735787     0.28460
H508        H  0.30752472  0.81554402  0.08557965     0.28460
H509        H  0.26878016  0.73615825  0.10170773     0.19050
H510        H  0.27880251  0.76228578  0.38601365     0.19050
C511        C  0.64629364  0.71895742  0.22619676    -0.06780
C512        C  0.65511866  0.72544863  0.28696367    -0.17910
C513        C  0.65630291  0.75682654  0.30958430     0.10420
C514        C  0.64662669  0.78271232  0.27138330    -0.06700
C515        C  0.63976540  0.77639886  0.21016971    -0.17940
C516        C  0.64024106  0.74515553  0.18700476     0.10450
S517        S  0.67122788  0.76195305  0.38720887    -0.32900
S518        S  0.63191143  0.74085919  0.10728650    -0.32910
H519        H  0.66795542  0.72205443  0.09885988     0.28460
H520        H  0.69708220  0.78853131  0.37640880     0.28460
H521        H  0.66109319  0.70590343  0.31743284     0.19050
H522        H  0.63319433  0.79595880  0.17996992     0.19050
C523        C  0.62527010  0.96814011  0.27390855    -0.06780
C524        C  0.62204344  0.99266311  0.31765943    -0.17910
C525        C  0.62026627  0.52504032  0.30188595     0.10420
C526        C  0.62222003  0.53355026  0.24076508    -0.06700
C527        C  0.62496127  0.50906178  0.19715133    -0.17940
C528        C  0.62716340  0.97682152  0.21275957     0.10450
S529        S  0.61385733  0.55396361  0.36170687    -0.32900
S530        S  0.63299471  0.94838962  0.15200953    -0.32910
H531        H  0.67030989  0.93569251  0.17543111     0.28460
H532        H  0.58316697  0.57170130  0.33123446     0.28460
H533        H  0.62032751  0.98665143  0.36478394     0.19050
H534        H  0.62651482  0.51503989  0.15003545     0.19050
C535        C  0.50154238  0.62998416  0.13591237    -0.06780
C536        C  0.47611008  0.65211901  0.16649536    -0.17910
C537        C  0.43302293  0.65351795  0.15553205     0.10420
C538        C  0.41470104  0.63166534  0.11445098    -0.06700
C539        C  0.44025472  0.60968058  0.08377068    -0.17940
C540        C  0.48318565  0.60828665  0.09463601     0.10450
S541        S  0.40366827  0.68473465  0.19264463    -0.32900
S542        S  0.51225614  0.57689725  0.05744428    -0.32910
H543        H  0.53688227  0.56945532  0.10783205     0.28460
H544        H  0.37709357  0.69074068  0.14357184     0.28460
H545        H  0.49007397  0.66898546  0.19792976     0.19050
H546        H  0.42642453  0.59261435  0.05257401     0.19050
C547        C  0.17636872  0.89940924  0.34475048    -0.06780
C548        C  0.15338120  0.91823945  0.38549357    -0.17910
C549        C  0.11951229  0.93654333  0.36691177     0.10420
C550        C  0.10821473  0.93676063  0.30560761    -0.06700
C551        C  0.12901188  0.91619607  0.26526703    -0.17940
C552        C  0.16279775  0.89730458  0.28435109     0.10450
S553        S  0.09233676  0.95935755  0.42398238    -0.32900
S554        S  0.18702437  0.87111223  0.22997013    -0.32910
H555        H  0.19639925  0.84689170  0.27136972     0.28460
H556        H  0.05244191  0.95499481  0.39847694     0.28460
H557        H  0.16274657  0.91978961  0.43222711     0.19050
H558        H  0.11985690  0.91563444  0.21840677     0.19050
C559        C  0.17793260  0.60528815  0.16203659    -0.06660
C560        C  0.14440439  0.59894849  0.12262550    -0.17910
C561        C  0.10915116  0.58219414  0.14129140     0.10420
C562        C  0.10699435  0.57117975  0.20076112    -0.06700
C563        C  0.13840887  0.57988802  0.24181194    -0.17940
C564        C  0.17367991  0.59704124  0.22329676     0.10450
S565        S  0.06845517  0.57483996  0.08657849    -0.32900
S566        S  0.21242172  0.60646029  0.27956235    -0.32910
H567        H  0.21971167  0.63752916  0.25807039     0.28460
H568        H  0.03545087  0.57481723  0.12816597     0.28460
H569        H  0.14630777  0.60571669  0.07589020     0.19050
H570        H  0.13648547  0.57193412  0.28788418     0.19050
C571        C  0.81410877  0.93303821  0.44176469    -0.06780
C572        C  0.78958792  0.91698723  0.48419175    -0.17910
C573        C  0.75431496  0.89924035  0.46646486     0.10420
C574        C  0.74287709  0.89796175  0.40510976    -0.06700
C575        C  0.76950018  0.91195681  0.36267797    -0.17940
C576        C  0.80490953  0.92910592  0.38012138     0.10450
S577        S  0.72527870  0.87909978  0.02401333    -0.32900
S578        S  0.83655213  0.94586225  0.32126822    -0.32910
H579        H  0.87477741  0.94171906  0.35160079     0.28460
H580        H  0.71538023  0.85231868  0.48783007     0.28460
H581        H  0.79690113  0.91932892  0.03155381     0.19050
H582        H  0.76187985  0.91073675  0.31527965     0.19050
C583        C  0.80204890  0.56198800  0.04295007    -0.06780
C584        C  0.76249089  0.54784133  0.03807169    -0.17910
C585        C  0.72648592  0.56452284  0.05420932     0.10420
C586        C  0.72981616  0.59590836  0.07769885    -0.06700
C587        C  0.76926819  0.61052869  0.08123285    -0.17940
C588        C  0.80544665  0.59399400  0.06348749     0.10450
S589        S  0.67765191  0.54320993  0.04990831    -0.32900
S590        S  0.85492422  0.61410618  0.07227273    -0.32910
H591        H  0.87692551  0.58704790  0.09216281     0.28460
H592        H  0.65753303  0.56712594  0.01655716     0.28460
H593        H  0.75962662  0.52330947  0.02217171     0.19050
H594        H  0.77206549  0.63441925  0.10025442     0.19050
In595      In  0.89869520  0.50116496  0.99952413     1.36870
C596        C  0.94743072  0.50401858  0.90248867     0.76930
O597        O  0.93449229  0.52565320  0.57380816    -0.61520
O598        O  0.93592814  0.97499823  0.57062660    -0.52430
C599        C  0.83823602  0.54155194  0.52895403     0.69590
O600        O  0.86847620  0.55004658  0.49640314    -0.47290
C601        C  0.84550529  0.95651987  0.96261874     0.74300
O602        O  0.92975584  0.52848166  0.92422670    -0.59150
O603        O  0.86663074  0.95343523  0.01030023    -0.49240
O604        O  0.94215428  0.97886720  0.93217313    -0.55580
C605        C  0.94676907  0.00023012  0.59796288     0.84480
O606        O  0.84004433  0.51317038  0.54733937    -0.57470
O607        O  0.85200055  0.98216547  0.93477524    -0.60760
In608      In  0.02115470  0.50296588  0.75001561     1.36870
C609        C  0.97193514  0.50421384  0.84681170     0.76930
O610        O  0.97703060  0.52552209  0.68437820    -0.61520
O611        O  0.98995113  0.97597687  0.67348108    -0.52430
C612        C  0.07552380  0.54750770  0.71863158     0.69590
O613        O  0.05611558  0.54890758  0.76783442    -0.47290
C614        C  0.07751729  0.96009819  0.78312024     0.74300
O615        O  0.98340508  0.52942411  0.82096050    -0.59150
O616        O  0.05160793  0.95415333  0.74156675    -0.49240
O617        O  0.98348119  0.97873226  0.82126008    -0.55580
C618        C  0.97171774  0.00043191  0.65342517     0.84480
O619        O  0.06690212  0.52355528  0.68603107    -0.57470
O620        O  0.07518928  0.98793590  0.80502154    -0.60760
In621      In  0.62717484  0.62500858  0.67232458     1.36870
C622        C  0.62277708  0.56705266  0.71929926     0.76930
O623        O  0.56107777  0.63193859  0.70115196    -0.61520
O624        O  0.57388008  0.62653612  0.60754799    -0.52430
C625        C  0.64109293  0.68498723  0.70680059     0.69590
O626        O  0.64257078  0.66184313  0.74315288    -0.47290
C627        C  0.69420484  0.61053673  0.60923375     0.74300
O628        O  0.63325674  0.59122473  0.75081195    -0.59150
O629        O  0.65899613  0.61490082  0.58480260    -0.49240
O630        O  0.61400071  0.57327870  0.66553696    -0.55580
C631        C  0.54673466  0.62972019  0.64838423     0.84480
O632        O  0.63345681  0.67680625  0.65322152    -0.57470
O633        O  0.69578151  0.61672667  0.66475882    -0.60760
In634      In  0.28901367  0.62540838  0.57781544     1.36870
C635        C  0.29069152  0.56617390  0.53512757     0.76930
O636        O  0.35547110  0.62445179  0.55058725    -0.61520
O637        O  0.34183295  0.63390980  0.64283440    -0.52430
C638        C  0.27872384  0.68355834  0.53455631     0.69590
O639        O  0.27645979  0.65872936  0.50166168    -0.47290
C640        C  0.21785710  0.61589843  0.63483526     0.74300
O641        O  0.28583331  0.59013659  0.50137970    -0.59150
O642        O  0.25257249  0.61667864  0.66226506    -0.49240
O643        O  0.29518926  0.57313179  0.59005714    -0.55580
C644        C  0.36940146  0.63035011  0.60256417     0.84480
O645        O  0.28501007  0.67807284  0.58954143    -0.57470
O646        O  0.22009830  0.62229671  0.57966019    -0.60760
In647      In  0.62845412  0.87496543  0.83372997     1.36870
C648        C  0.62576053  0.93433660  0.79425846     0.76930
O649        O  0.56260597  0.87526414  0.80382032    -0.61520
O650        O  0.57477000  0.86723751  0.89702481    -0.52430
C651        C  0.64092319  0.81600198  0.79376055     0.69590
O652        O  0.64065367  0.83994687  0.75919235    -0.47290
C653        C  0.70202028  0.88603075  0.88279950     0.74300
O654        O  0.62949493  0.91034472  0.75929763    -0.59150
O655        O  0.66928654  0.88410834  0.91471439    -0.49240
O656        O  0.62245642  0.92737395  0.84917492    -0.55580
C657        C  0.54790032  0.87014493  0.85533649     0.84480
O658        O  0.63450511  0.82265100  0.84843784    -0.57470
O659        O  0.69666946  0.87984420  0.82769221    -0.60760
In660      In  0.28946110  0.87403764  0.91601764     1.36870
C661        C  0.29437007  0.93301515  0.95904543     0.76930
O662        O  0.35537991  0.86727937  0.94421485    -0.61520
O663        O  0.34260131  0.87283104  0.85052222    -0.52430
C664        C  0.27802974  0.81523417  0.95473286     0.69590
O665        O  0.27886066  0.83938130  0.98949375    -0.47290
C666        C  0.21620633  0.88599986  0.86720871     0.74300
O667        O  0.28708958  0.90930483  0.99252920    -0.59150
O668        O  0.24818425  0.88101362  0.83481980    -0.49240
O669        O  0.29980540  0.92592034  0.90442620    -0.55580
C670        C  0.36972192  0.86953530  0.89171128     0.84480
O671        O  0.28186043  0.82171138  0.89958474    -0.57470
O672        O  0.22179036  0.88188497  0.92272064    -0.60760
C673        C  0.50243383  0.86878119  0.86496783    -0.06780
C674        C  0.47780752  0.89275314  0.83890759    -0.17910
C675        C  0.43456481  0.89359644  0.84716232     0.10420
C676        C  0.41503612  0.86934136  0.88056759    -0.06700
C677        C  0.43958534  0.84524782  0.90651510    -0.17940
C678        C  0.48297850  0.84444410  0.89833556     0.10450
S679        S  0.40647486  0.92739637  0.81761207    -0.32900
S680        S  0.51137868  0.81102885  0.92881915    -0.32910
H681        H  0.54065999  0.80889218  0.88195506     0.28460
H682        H  0.38061072  0.93132404  0.86808677     0.28460
H683        H  0.49258937  0.91163487  0.81354882     0.19050
H684        H  0.42472965  0.82657575  0.93230076     0.19050
C685        C  0.29127906  0.53237469  0.51382840    -0.06780
C686        C  0.29441523  0.50823265  0.55731657    -0.17910
C687        C  0.29667912  0.97583617  0.54131507     0.10420
C688        C  0.29506207  0.96679225  0.98007640    -0.06700
C689        C  0.29224898  0.99089287  0.93653642    -0.17940
C690        C  0.28993980  0.52329521  0.95250690     0.10450
S691        S  0.30288961  0.94762512  0.60135684    -0.32900
S692        S  0.28519884  0.55146585  0.89217947    -0.32910
H693        H  0.24755522  0.56435418  0.91424689     0.28460
H694        H  0.33568918  0.93097678  0.57294058     0.28460
H695        H  0.29572364  0.51456051  0.60456984     0.19050
H696        H  0.29080688  0.98448609  0.88931568     0.19050
C697        C  0.27515552  0.71674649  0.51188971    -0.06780
C698        C  0.27103027  0.74164609  0.55438569    -0.17910
C699        C  0.27109904  0.77377280  0.53754596     0.10420
C700        C  0.27444920  0.78175919  0.97610498    -0.06700
C701        C  0.27640717  0.75679066  0.93330872    -0.17940
C702        C  0.27739904  0.72463603  0.95033455     0.10450
S703        S  0.26755355  0.80305019  0.59724154    -0.32900
S704        S  0.28358597  0.69527108  0.89123933    -0.32910
H705        H  0.31945528  0.68168220  0.91735806     0.28460
H706        H  0.30752492  0.81554403  0.58557948     0.28460
H707        H  0.26878031  0.73615825  0.60170774     0.19050
H708        H  0.27880265  0.76228578  0.88601368     0.19050
C709        C  0.64629364  0.71895740  0.72619677    -0.06780
C710        C  0.65511862  0.72544861  0.78696370    -0.17910
C711        C  0.65630287  0.75682652  0.80958433     0.10420
C712        C  0.64662668  0.78271230  0.77138332    -0.06700
C713        C  0.63976543  0.77639885  0.71016972    -0.17940
C714        C  0.64024109  0.74515552  0.68700477     0.10450
S715        S  0.67122780  0.76195302  0.88720891    -0.32900
S716        S  0.63191152  0.74085918  0.60728649    -0.32910
H717        H  0.66795550  0.72205440  0.59885993     0.28460
H718        H  0.69708215  0.78853127  0.87640888     0.28460
H719        H  0.66109313  0.70590341  0.81743287     0.19050
H720        H  0.63319438  0.79595879  0.67996992     0.19050
C721        C  0.62527008  0.96814010  0.77390855    -0.06780
C722        C  0.62204346  0.99266310  0.81765944    -0.17910
C723        C  0.62026626  0.52504031  0.80188595     0.10420
C724        C  0.62222000  0.53355025  0.74076508    -0.06700
C725        C  0.62496122  0.50906177  0.69715133    -0.17940
C726        C  0.62716333  0.97682151  0.71275957     0.10450
S727        S  0.61385734  0.55396361  0.86170687    -0.32900
S728        S  0.63299458  0.94838961  0.65200952    -0.32910
H729        H  0.67030978  0.93569250  0.67543102     0.28460
H730        H  0.58316697  0.57170129  0.83123448     0.28460
H731        H  0.62032757  0.98665142  0.86478395     0.19050
H732        H  0.62651475  0.51503988  0.65003545     0.19050
C733        C  0.50154238  0.62998416  0.63591232    -0.06780
C734        C  0.47611007  0.65211901  0.66649532    -0.17910
C735        C  0.43302292  0.65351794  0.65553201     0.10420
C736        C  0.41470104  0.63166534  0.61445092    -0.06700
C737        C  0.44025473  0.60968060  0.58377060    -0.17940
C738        C  0.48318565  0.60828666  0.59463593     0.10450
S739        S  0.40366826  0.68473463  0.69264461    -0.32900
S740        S  0.51225614  0.57689727  0.55744419    -0.32910
H741        H  0.53688227  0.56945532  0.60783195     0.28460
H742        H  0.37709357  0.69074068  0.64357182     0.28460
H743        H  0.49007396  0.66898545  0.69792974     0.19050
H744        H  0.42642453  0.59261436  0.55257392     0.19050
C745        C  0.17636872  0.89940923  0.84475050    -0.06780
C746        C  0.15338119  0.91823943  0.88549360    -0.17910
C747        C  0.11951228  0.93654332  0.86691180     0.10420
C748        C  0.10821472  0.93676061  0.80560763    -0.06700
C749        C  0.12901189  0.91619606  0.76526705    -0.17940
C750        C  0.16279776  0.89730458  0.78435111     0.10450
S751        S  0.09233673  0.95935753  0.92398240    -0.32900
S752        S  0.18702439  0.87111224  0.72997015    -0.32910
H753        H  0.19639926  0.84689170  0.77136974     0.28460
H754        H  0.05244189  0.95499479  0.89847694     0.28460
H755        H  0.16274655  0.91978959  0.93222714     0.19050
H756        H  0.11985691  0.91563444  0.71840678     0.19050
C757        C  0.17793260  0.60528813  0.66203656    -0.06660
C758        C  0.14440439  0.59894846  0.62262548    -0.17910
C759        C  0.10915117  0.58219411  0.64129138     0.10420
C760        C  0.10699435  0.57117973  0.70076110    -0.06700
C761        C  0.13840888  0.57988801  0.74181192    -0.17940
C762        C  0.17367992  0.59704122  0.72329673     0.10450
S763        S  0.06845517  0.57483993  0.58657848    -0.32900
S764        S  0.21242173  0.60646028  0.77956232    -0.32910
H765        H  0.21971167  0.63752915  0.75807035     0.28460
H766        H  0.03545087  0.57481720  0.62816596     0.28460
H767        H  0.14630777  0.60571666  0.57589017     0.19050
H768        H  0.13648548  0.57193410  0.78788417     0.19050
C769        C  0.81410877  0.93303820  0.94176469    -0.06780
C770        C  0.78958791  0.91698722  0.98419176    -0.17910
C771        C  0.75431495  0.89924034  0.96646486     0.10420
C772        C  0.74287709  0.89796173  0.90510977    -0.06700
C773        C  0.76950017  0.91195679  0.86267797    -0.17940
C774        C  0.80490952  0.92910590  0.88012139     0.10450
S775        S  0.72527870  0.87909979  0.52401333    -0.32900
S776        S  0.83655213  0.94586223  0.82126822    -0.32910
H777        H  0.87477741  0.94171904  0.85160080     0.28460
H778        H  0.71538023  0.85231866  0.98783008     0.28460
H779        H  0.79690114  0.91932893  0.53155380     0.19050
H780        H  0.76187985  0.91073673  0.81527965     0.19050
C781        C  0.80204890  0.56198798  0.54295008    -0.06780
C782        C  0.76249090  0.54784130  0.53807176    -0.17910
C783        C  0.72648593  0.56452281  0.55420939     0.10420
C784        C  0.72981616  0.59590834  0.57769886    -0.06700
C785        C  0.76926818  0.61052868  0.58123280    -0.17940
C786        C  0.80544664  0.59399400  0.56348744     0.10450
S787        S  0.67765193  0.54320988  0.54990844    -0.32900
S788        S  0.85492420  0.61410621  0.57227261    -0.32910
H789        H  0.87692551  0.58704794  0.59216272     0.28460
H790        H  0.65753301  0.56712588  0.51655729     0.28460
H791        H  0.75962664  0.52330943  0.52217181     0.19050
H792        H  0.77206547  0.63441926  0.60025433     0.19050
loop_ 
_geom_bond_atom_site_label_1 
_geom_bond_atom_site_label_2 
_geom_bond_distance 
_geom_bond_site_symmetry_2 
_ccdc_geom_bond_type 
In1           O8   2.269       .  S
In1         O201   2.247       .  S
In1         O598   2.268   1_545  S
In1         O210   2.216       .  S
In1         O204   2.261       .  S
In1         O405   2.258   1_545  S
In1         O406   2.244   1_545  S
In1         O409   2.215   1_545  S
C2            O8   1.261       .  A
C2          O406   1.259   1_545  A
C2           C15   1.469       .  S
O3         In199   2.247   1_554  S
O3          C407   1.258       .  A
O4         In595   2.268   1_554  S
O4           C11   1.260       .  A
C5           O12   1.259       .  A
C5            O6   1.264   1_554  A
C5          C187   1.471       .  S
O6         In199   2.261       .  S
C7            O9   1.265       .  A
C7           O13   1.261       .  A
C7          C175   1.475       .  S
O9         In397   2.258       .  S
O10        In397   2.244       .  S
O10         C398   1.259       .  A
C11         O399   1.258       .  A
C11          C24   1.469       .  S
O12        In199   2.216   1_554  S
O13        In397   2.215       .  S
In14         O16   2.244   1_455  S
In14         O25   2.225       .  S
In14         O19   2.253       .  S
In14         O21   2.270   1_455  S
In14        O413   2.264   1_445  S
In14        O418   2.266   1_545  S
In14        O419   2.245   1_445  S
In14        O422   2.211   1_545  S
C15          O21   1.260       .  A
C15         O419   1.258   1_545  A
O16         C420   1.260       .  A
O17        In410   2.264   1_655  S
O17          C24   1.261       .  A
C18          O25   1.260       .  A
C18          O19   1.262       .  A
C18         C166   1.470       .  S
C20          O22   1.264       .  A
C20          O26   1.259       .  A
C20         C154   1.474       .  S
O22        In410   2.266       .  S
O23        In410   2.245   1_655  S
O23         C411   1.258       .  A
C24         O412   1.260       .  A
O26        In410   2.211       .  S
In27         O29   2.231       .  S
In27         O30   2.232       .  S
In27         O38   2.219       .  S
In27         O32   2.246       .  S
In27         O34   2.265       .  S
In27         O35   2.238       .  S
In27         O36   2.205       .  S
In27         O39   2.230       .  S
C28          O34   1.268       .  A
C28          O36   1.259       .  A
C28         C130   1.483       .  S
O29          C37   1.263       .  A
O30          C37   1.266       .  A
C31          O38   1.261       .  A
C31          O32   1.268       .  A
C31         C115   1.488       .  S
C33          O35   1.264       .  A
C33          O39   1.261       .  A
C33         C190   1.470       .  S
C37         C139   1.472       .  S
In40         O42   2.214       .  S
In40         O43   2.249       .  S
In40         O51   2.216       .  S
In40         O45   2.240       .  S
In40         O47   2.242       .  S
In40         O48   2.249       .  S
In40         O49   2.212       .  S
In40         O52   2.211       .  S
C41          O47   1.267       .  A
C41          O49   1.262       .  A
C41          C91   1.485       .  S
O42          C50   1.261       .  A
O43          C50   1.268       .  A
C44          O51   1.263       .  A
C44          O45   1.266       .  A
C44         C103   1.484       .  S
C46          O48   1.267       .  A
C46          O52   1.262       .  A
C46         C163   1.486       .  S
C50         C142   1.474       .  S
In53         O55   2.209       .  S
In53         O56   2.251       .  S
In53         O64   2.221       .  S
In53         O58   2.236       .  S
In53         O60   2.232       .  S
In53         O61   2.254       .  S
In53         O62   2.221       .  S
In53         O65   2.198       .  S
C54          O60   1.269       .  A
C54          O62   1.265       .  A
C54         C127   1.487       .  S
O55          C63   1.261       .  A
O56          C63   1.270       .  A
C57          O64   1.263       .  A
C57          O58   1.268       .  A
C57         C118   1.484       .  S
C59          O61   1.271       .  A
C59          O65   1.263       .  A
C59         C178   1.482       .  S
C63          C79   1.473       .  S
In66         O68   2.219       .  S
In66         O69   2.244       .  S
In66         O77   2.226       .  S
In66         O71   2.222       .  S
In66         O73   2.242       .  S
In66         O74   2.258       .  S
In66         O75   2.210       .  S
In66         O78   2.196       .  S
C67          O73   1.268       .  A
C67          O75   1.261       .  A
C67          C94   1.482       .  S
O68          C76   1.262       .  A
O69          C76   1.270       .  A
C70          O77   1.266       .  A
C70          O71   1.265       .  A
C70         C106   1.486       .  S
C72          O74   1.270       .  A
C72          O78   1.262       .  A
C72         C151   1.481       .  S
C76          C82   1.472       .  S
C79          C80   1.404       .  A
C79          C84   1.411       .  A
C80          C81   1.397       .  A
C80          H89   1.084       .  S
C81          C82   1.410       .  A
C81          S85   1.803       .  S
C82          C83   1.405       .  A
C83          C84   1.402       .  A
C83          H90   1.084       .  S
C84          S86   1.803       .  S
S85          H88   1.406       .  S
S86          H87   1.407       .  S
C91          C92   1.408       .  A
C91         C294   1.414   1_554  A
C92         C489   1.398   1_545  A
C92         H101   1.083       .  S
C93         C488   1.398       .  A
C93         C292   1.412   1_554  A
C93          S97   1.802       .  S
C94          C95   1.407       .  A
C94         C291   1.412       .  A
C95         C492   1.398       .  A
C95         H102   1.083       .  S
C96         C289   1.414       .  A
C96         C491   1.398   1_545  A
C96          S98   1.801       .  S
S97         H100   1.408       .  S
S98          H99   1.408       .  S
C103        C104   1.405       .  A
C103        C306   1.415   1_554  A
C104        C105   1.397       .  A
C104        H113   1.083       .  S
C105        C304   1.416   1_554  A
C105        S109   1.801       .  S
C106        C107   1.407       .  A
C106        C303   1.416       .  A
C107        C108   1.400       .  A
C107        H114   1.083       .  S
C108        C301   1.415       .  A
C108        S110   1.801       .  S
S109        H112   1.408       .  S
S110        H111   1.408       .  S
C115        C116   1.405       .  A
C115        C120   1.419       .  A
C116        C117   1.400       .  A
C116        H125   1.083       .  S
C117        C118   1.416       .  A
C117        S121   1.803       .  S
C118        C119   1.402       .  A
C119        C120   1.399       .  A
C119        H126   1.084       .  S
C120        S122   1.801       .  S
S121        H124   1.408       .  S
S122        H123   1.408       .  S
C127        C128   1.410       .  A
C127        C132   1.414       .  A
C128        C525   1.402       .  A
C128        H137   1.083       .  S
C129        C130   1.412       .  A
C129        C524   1.402   1_545  A
C129        S133   1.801       .  S
C130        C131   1.406       .  A
C131        C528   1.396   1_545  A
C131        H138   1.082       .  S
C132        C527   1.396       .  A
C132        S134   1.801       .  S
S133        H136   1.407       .  S
S134        H135   1.408       .  S
C139        C140   1.404       .  A
C139        C144   1.411       .  A
C140        C141   1.401       .  A
C140        H149   1.084       .  S
C141        C142   1.412       .  A
C141        S145   1.802       .  S
C142        C143   1.403       .  A
C143        C144   1.396       .  A
C143        H150   1.084       .  S
C144        S146   1.804       .  S
S145        H148   1.407       .  S
S146        H147   1.407       .  S
C151        C152   1.405       .  A
C151        C156   1.414       .  A
C152        C153   1.391       .  A
C152        H161   1.083       .  S
C153        C154   1.411       .  A
C153        S157   1.806       .  S
C154        C155   1.406       .  A
C155        C156   1.406       .  A
C155        H162   1.083       .  S
C156        S158   1.801       .  S
S157        H160   1.407       .  S
S158        H159   1.407       .  S
C163        C164   1.408       .  A
C163        C168   1.417       .  A
C164        C165   1.395       .  A
C164        H173   1.083       .  S
C165        C166   1.408       .  A
C165        S169   1.805       .  S
C166        C167   1.403       .  A
C167        C168   1.403       .  A
C167        H174   1.083       .  S
C168        S170   1.801       .  S
S169        H172   1.407       .  S
S170        H171   1.407       .  S
C175        C176   1.406       .  A
C175        C180   1.411       .  A
C176        C177   1.404       .  A
C176        H383   1.083       .  S
C177        C178   1.414       .  A
C177        S379   1.801       .  S
C178        C179   1.406       .  A
C179        C180   1.393       .  A
C179        H186   1.083       .  S
C180        S182   1.806       .  S
S181        C375   1.801   1_554  S
S181        H382   1.408   1_554  S
S182        H183   1.407       .  S
H184        S379   1.408       .  S
H185        C374   1.083   1_554  S
C187        C188   1.401       .  A
C187        C192   1.413       .  A
C188        C189   1.393       .  A
C188        H197   1.085       .  S
C189        C190   1.410       .  A
C189        S193   1.801       .  S
C190        C191   1.405       .  A
C191        C192   1.404       .  A
C191        H198   1.084       .  S
C192        S194   1.802       .  S
S193        H196   1.406       .  S
S194        H195   1.406       .  S
In199       O400   2.268   1_546  S
In199       O206   2.269       .  S
In199       O603   2.258   1_546  S
In199       O604   2.244   1_545  S
In199       O607   2.215   1_545  S
C200        O206   1.261       .  A
C200        O604   1.259   1_545  A
C200        C213   1.469       .  S
O201        C605   1.258       .  A
O202       In397   2.268       .  S
O202        C209   1.260       .  A
C203        O210   1.259       .  A
C203        O204   1.264       .  A
C203        C385   1.471       .  S
C205        O207   1.265   1_556  A
C205        O211   1.261       .  A
C205        C373   1.475       .  S
O207       In595   2.258   1_554  S
O208       In595   2.244       .  S
O208        C596   1.259       .  A
C209        O597   1.258       .  A
C209        C222   1.469       .  S
O211       In595   2.215       .  S
In212       O214   2.244   1_455  S
In212       O611   2.264   1_445  S
In212       O223   2.225       .  S
In212       O217   2.253       .  S
In212       O219   2.270   1_455  S
In212       O616   2.266   1_545  S
In212       O617   2.245   1_445  S
In212       O620   2.211   1_545  S
C213        O219   1.260       .  A
C213        O617   1.258   1_545  A
O214        C618   1.260       .  A
O215       In608   2.264   1_655  S
O215        C222   1.261       .  A
C216        O223   1.260       .  A
C216        O217   1.262       .  A
C216        C364   1.470       .  S
C218        O220   1.264       .  A
C218        O224   1.259       .  A
C218        C352   1.474       .  S
O220       In608   2.266       .  S
O221       In608   2.245   1_655  S
O221        C609   1.258       .  A
C222        O610   1.260       .  A
O224       In608   2.211       .  S
In225       O227   2.231       .  S
In225       O228   2.232       .  S
In225       O236   2.219       .  S
In225       O230   2.246       .  S
In225       O232   2.265       .  S
In225       O233   2.238       .  S
In225       O234   2.205       .  S
In225       O237   2.230       .  S
C226        O232   1.268       .  A
C226        O234   1.259       .  A
C226        C328   1.483       .  S
O227        C235   1.263       .  A
O228        C235   1.266       .  A
C229        O236   1.261       .  A
C229        O230   1.268       .  A
C229        C313   1.488       .  S
C231        O233   1.264       .  A
C231        O237   1.261       .  A
C231        C388   1.470       .  S
C235        C337   1.472       .  S
In238       O240   2.214       .  S
In238       O241   2.249       .  S
In238       O249   2.216       .  S
In238       O243   2.240       .  S
In238       O245   2.242       .  S
In238       O246   2.249       .  S
In238       O247   2.212       .  S
In238       O250   2.211       .  S
C239        O245   1.267       .  A
C239        O247   1.262       .  A
C239        C289   1.485       .  S
O240        C248   1.261       .  A
O241        C248   1.268       .  A
C242        O249   1.263       .  A
C242        O243   1.266       .  A
C242        C301   1.484       .  S
C244        O246   1.267       .  A
C244        O250   1.262       .  A
C244        C361   1.486       .  S
C248        C340   1.474       .  S
In251       O253   2.209       .  S
In251       O254   2.251       .  S
In251       O262   2.221       .  S
In251       O256   2.236       .  S
In251       O258   2.232       .  S
In251       O259   2.254       .  S
In251       O260   2.221       .  S
In251       O263   2.198       .  S
C252        O258   1.269       .  A
C252        O260   1.265       .  A
C252        C325   1.487       .  S
O253        C261   1.261       .  A
O254        C261   1.270       .  A
C255        O262   1.263       .  A
C255        O256   1.268       .  A
C255        C316   1.484       .  S
C257        O259   1.271       .  A
C257        O263   1.263       .  A
C257        C376   1.482       .  S
C261        C277   1.473       .  S
In264       O266   2.219       .  S
In264       O267   2.244       .  S
In264       O275   2.226       .  S
In264       O269   2.222       .  S
In264       O271   2.242       .  S
In264       O272   2.258       .  S
In264       O273   2.210       .  S
In264       O276   2.196       .  S
C265        O271   1.268       .  A
C265        O273   1.261       .  A
C265        C292   1.482       .  S
O266        C274   1.262       .  A
O267        C274   1.270       .  A
C268        O275   1.266       .  A
C268        O269   1.265       .  A
C268        C304   1.486       .  S
C270        O272   1.270       .  A
C270        O276   1.262       .  A
C270        C349   1.481       .  S
C274        C280   1.472       .  S
C277        C278   1.404       .  A
C277        C282   1.411       .  A
C278        C279   1.397       .  A
C278        H287   1.084       .  S
C279        C280   1.410       .  A
C279        S283   1.803       .  S
C280        C281   1.405       .  A
C281        C282   1.402       .  A
C281        H288   1.084       .  S
C282        S284   1.803       .  S
S283        H286   1.406       .  S
S284        H285   1.407       .  S
C289        C290   1.408       .  A
C290        C687   1.398   1_545  A
C290        H299   1.083       .  S
C291        C686   1.398       .  A
C291        S295   1.802       .  S
C292        C293   1.407       .  A
C293        C690   1.398       .  A
C293        H300   1.083       .  S
C294        C689   1.398   1_545  A
C294        S296   1.801       .  S
S295        H298   1.408       .  S
S296        H297   1.408       .  S
C301        C302   1.405       .  A
C302        C303   1.397       .  A
C302        H311   1.083       .  S
C303        S307   1.801       .  S
C304        C305   1.407       .  A
C305        C306   1.400       .  A
C305        H312   1.083       .  S
C306        S308   1.801       .  S
S307        H310   1.408       .  S
S308        H309   1.408       .  S
C313        C314   1.405       .  A
C313        C318   1.419       .  A
C314        C315   1.400       .  A
C314        H323   1.083       .  S
C315        C316   1.416       .  A
C315        S319   1.803       .  S
C316        C317   1.402       .  A
C317        C318   1.399       .  A
C317        H324   1.084       .  S
C318        S320   1.801       .  S
S319        H322   1.408       .  S
S320        H321   1.408       .  S
C325        C326   1.410       .  A
C325        C330   1.414       .  A
C326        C723   1.402       .  A
C326        H335   1.083       .  S
C327        C722   1.402   1_545  A
C327        C328   1.412       .  A
C327        S331   1.801       .  S
C328        C329   1.406       .  A
C329        C726   1.396   1_545  A
C329        H336   1.082       .  S
C330        C725   1.396       .  A
C330        S332   1.801       .  S
S331        H334   1.407       .  S
S332        H333   1.408       .  S
C337        C338   1.404       .  A
C337        C342   1.411       .  A
C338        C339   1.401       .  A
C338        H347   1.084       .  S
C339        C340   1.412       .  A
C339        S343   1.802       .  S
C340        C341   1.403       .  A
C341        C342   1.396       .  A
C341        H348   1.084       .  S
C342        S344   1.804       .  S
S343        H346   1.407       .  S
S344        H345   1.407       .  S
C349        C350   1.405       .  A
C349        C354   1.414       .  A
C350        C351   1.391       .  A
C350        H359   1.083       .  S
C351        C352   1.411       .  A
C351        S355   1.806       .  S
C352        C353   1.406       .  A
C353        C354   1.406       .  A
C353        H360   1.083       .  S
C354        S356   1.801       .  S
S355        H358   1.407       .  S
S356        H357   1.407       .  S
C361        C362   1.408       .  A
C361        C366   1.417       .  A
C362        C363   1.395       .  A
C362        H371   1.083       .  S
C363        C364   1.408       .  A
C363        S367   1.805       .  S
C364        C365   1.403       .  A
C365        C366   1.403       .  A
C365        H372   1.083       .  S
C366        S368   1.801       .  S
S367        H370   1.407       .  S
S368        H369   1.407       .  S
C373        C374   1.406       .  A
C373        C378   1.411       .  A
C374        C375   1.404       .  A
C375        C376   1.414       .  A
C376        C377   1.406       .  A
C377        C378   1.393       .  A
C377        H384   1.083       .  S
C378        S380   1.806       .  S
S380        H381   1.407       .  S
C385        C386   1.401       .  A
C385        C390   1.413       .  A
C386        C387   1.393       .  A
C386        H395   1.085       .  S
C387        C388   1.410       .  A
C387        S391   1.801       .  S
C388        C389   1.405       .  A
C389        C390   1.404       .  A
C389        H396   1.084       .  S
C390        S392   1.802       .  S
S391        H394   1.406       .  S
S392        H393   1.406       .  S
In397       O597   2.247       .  S
In397       O606   2.216       .  S
In397       O600   2.261       .  S
In397       O404   2.269       .  S
C398        O404   1.261       .  A
C398        C411   1.469       .  S
O399       In595   2.247   1_554  S
O400        C407   1.260   1_565  A
C401        O408   1.259       .  A
C401        O402   1.264   1_554  A
C401        C583   1.471       .  S
O402       In595   2.261       .  S
C403        O405   1.265       .  A
C403        O409   1.261       .  A
C403        C571   1.475       .  S
C407        C420   1.469       .  S
O408       In595   2.216   1_554  S
In410       O412   2.244   1_455  S
In410       O421   2.225       .  S
In410       O415   2.253       .  S
In410       O417   2.270   1_455  S
C411        O417   1.260       .  A
O413        C420   1.261   1_565  A
C414        O421   1.260       .  A
C414        O415   1.262       .  A
C414        C562   1.470       .  S
C416        O418   1.264       .  A
C416        O422   1.259       .  A
C416        C550   1.474       .  S
In423       O425   2.231       .  S
In423       O426   2.232       .  S
In423       O434   2.219       .  S
In423       O428   2.246       .  S
In423       O430   2.265       .  S
In423       O431   2.238       .  S
In423       O432   2.205       .  S
In423       O435   2.230       .  S
C424        O430   1.268       .  A
C424        O432   1.259       .  A
C424        C526   1.483       .  S
O425        C433   1.263       .  A
O426        C433   1.266       .  A
C427        O434   1.261       .  A
C427        O428   1.268       .  A
C427        C511   1.488       .  S
C429        O431   1.264       .  A
C429        O435   1.261       .  A
C429        C586   1.470       .  S
C433        C535   1.472       .  S
In436       O438   2.214       .  S
In436       O439   2.249       .  S
In436       O447   2.216       .  S
In436       O441   2.240       .  S
In436       O443   2.242       .  S
In436       O444   2.249       .  S
In436       O445   2.212       .  S
In436       O448   2.211       .  S
C437        O443   1.267       .  A
C437        O445   1.262       .  A
C437        C487   1.485       .  S
O438        C446   1.261       .  A
O439        C446   1.268       .  A
C440        O447   1.263       .  A
C440        O441   1.266       .  A
C440        C499   1.484       .  S
C442        O444   1.267       .  A
C442        O448   1.262       .  A
C442        C559   1.486       .  S
C446        C538   1.474       .  S
In449       O451   2.209       .  S
In449       O452   2.251       .  S
In449       O460   2.221       .  S
In449       O454   2.236       .  S
In449       O456   2.232       .  S
In449       O457   2.254       .  S
In449       O458   2.221       .  S
In449       O461   2.198       .  S
C450        O456   1.269       .  A
C450        O458   1.265       .  A
C450        C523   1.487       .  S
O451        C459   1.261       .  A
O452        C459   1.270       .  A
C453        O460   1.263       .  A
C453        O454   1.268       .  A
C453        C514   1.484       .  S
C455        O457   1.271       .  A
C455        O461   1.263       .  A
C455        C574   1.482       .  S
C459        C475   1.473       .  S
In462       O464   2.219       .  S
In462       O465   2.244       .  S
In462       O473   2.226       .  S
In462       O467   2.222       .  S
In462       O469   2.242       .  S
In462       O470   2.258       .  S
In462       O471   2.210       .  S
In462       O474   2.196       .  S
C463        O469   1.268       .  A
C463        O471   1.261       .  A
C463        C490   1.482       .  S
O464        C472   1.262       .  A
O465        C472   1.270       .  A
C466        O473   1.266       .  A
C466        O467   1.265       .  A
C466        C502   1.486       .  S
C468        O470   1.270       .  A
C468        O474   1.262       .  A
C468        C547   1.481       .  S
C472        C478   1.472       .  S
C475        C476   1.404       .  A
C475        C480   1.411       .  A
C476        C477   1.397       .  A
C476        H485   1.084       .  S
C477        C478   1.410       .  A
C477        S481   1.803       .  S
C478        C479   1.405       .  A
C479        C480   1.402       .  A
C479        H486   1.084       .  S
C480        S482   1.803       .  S
S481        H484   1.406       .  S
S482        H483   1.407       .  S
C487        C488   1.408       .  A
C487        C690   1.414   1_554  A
C488        H497   1.083       .  S
C489        C688   1.412   1_554  A
C489        S493   1.802       .  S
C490        C687   1.412       .  A
C490        C491   1.407       .  A
C491        H498   1.083       .  S
C492        C685   1.414       .  A
C492        S494   1.801       .  S
S493        H496   1.408       .  S
S494        H495   1.408       .  S
C499        C500   1.405       .  A
C499        C702   1.415   1_554  A
C500        C501   1.397       .  A
C500        H509   1.083       .  S
C501        C700   1.416   1_554  A
C501        S505   1.801       .  S
C502        C699   1.416       .  A
C502        C503   1.407       .  A
C503        C504   1.400       .  A
C503        H510   1.083       .  S
C504        C697   1.415       .  A
C504        S506   1.801       .  S
S505        H508   1.408       .  S
S506        H507   1.408       .  S
C511        C512   1.405       .  A
C511        C516   1.419       .  A
C512        C513   1.400       .  A
C512        H521   1.083       .  S
C513        C514   1.416       .  A
C513        S517   1.803       .  S
C514        C515   1.402       .  A
C515        C516   1.399       .  A
C515        H522   1.084       .  S
C516        S518   1.801       .  S
S517        H520   1.408       .  S
S518        H519   1.408       .  S
C523        C524   1.410       .  A
C523        C528   1.414       .  A
C524        H533   1.083       .  S
C525        C526   1.412       .  A
C525        S529   1.801       .  S
C526        C527   1.406       .  A
C527        H534   1.082       .  S
C528        S530   1.801       .  S
S529        H532   1.407       .  S
S530        H531   1.408       .  S
C535        C536   1.404       .  A
C535        C540   1.411       .  A
C536        C537   1.401       .  A
C536        H545   1.084       .  S
C537        C538   1.412       .  A
C537        S541   1.802       .  S
C538        C539   1.403       .  A
C539        C540   1.396       .  A
C539        H546   1.084       .  S
C540        S542   1.804       .  S
S541        H544   1.407       .  S
S542        H543   1.407       .  S
C547        C548   1.405       .  A
C547        C552   1.414       .  A
C548        C549   1.391       .  A
C548        H557   1.083       .  S
C549        C550   1.411       .  A
C549        S553   1.806       .  S
C550        C551   1.406       .  A
C551        C552   1.406       .  A
C551        H558   1.083       .  S
C552        S554   1.801       .  S
S553        H556   1.407       .  S
S554        H555   1.407       .  S
C559        C560   1.408       .  A
C559        C564   1.417       .  A
C560        C561   1.395       .  A
C560        H569   1.083       .  S
C561        C562   1.408       .  A
C561        S565   1.805       .  S
C562        C563   1.403       .  A
C563        C564   1.403       .  A
C563        H570   1.083       .  S
C564        S566   1.801       .  S
S565        H568   1.407       .  S
S566        H567   1.407       .  S
C571        C572   1.406       .  A
C571        C576   1.411       .  A
C572        C573   1.404       .  A
C572        H779   1.083       .  S
C573        C574   1.414       .  A
C573        S775   1.801       .  S
C574        C575   1.406       .  A
C575        C576   1.393       .  A
C575        H582   1.083       .  S
C576        S578   1.806       .  S
S577        C771   1.801   1_554  S
S577        H778   1.408   1_554  S
S578        H579   1.407       .  S
H580        S775   1.408       .  S
H581        C770   1.083   1_554  S
C583        C584   1.401       .  A
C583        C588   1.413       .  A
C584        C585   1.393       .  A
C584        H593   1.085       .  S
C585        C586   1.410       .  A
C585        S589   1.801       .  S
C586        C587   1.405       .  A
C587        C588   1.404       .  A
C587        H594   1.084       .  S
C588        S590   1.802       .  S
S589        H592   1.406       .  S
S590        H591   1.406       .  S
In595       O602   2.269       .  S
C596        O602   1.261       .  A
C596        C609   1.469       .  S
O598        C605   1.260   1_565  A
C599        O606   1.259       .  A
C599        O600   1.264       .  A
C599        C781   1.471       .  S
C601        O603   1.265   1_556  A
C601        O607   1.261       .  A
C601        C769   1.475       .  S
C605        C618   1.469       .  S
In608       O610   2.244   1_455  S
In608       O619   2.225       .  S
In608       O613   2.253       .  S
In608       O615   2.270   1_455  S
C609        O615   1.260       .  A
O611        C618   1.261   1_565  A
C612        O619   1.260       .  A
C612        O613   1.262       .  A
C612        C760   1.470       .  S
C614        O616   1.264       .  A
C614        O620   1.259       .  A
C614        C748   1.474       .  S
In621       O623   2.231       .  S
In621       O624   2.232       .  S
In621       O632   2.219       .  S
In621       O626   2.246       .  S
In621       O628   2.265       .  S
In621       O629   2.238       .  S
In621       O630   2.205       .  S
In621       O633   2.230       .  S
C622        O628   1.268       .  A
C622        O630   1.259       .  A
C622        C724   1.483       .  S
O623        C631   1.263       .  A
O624        C631   1.266       .  A
C625        O632   1.261       .  A
C625        O626   1.268       .  A
C625        C709   1.488       .  S
C627        O629   1.264       .  A
C627        O633   1.261       .  A
C627        C784   1.470       .  S
C631        C733   1.472       .  S
In634       O636   2.214       .  S
In634       O637   2.249       .  S
In634       O645   2.216       .  S
In634       O639   2.240       .  S
In634       O641   2.242       .  S
In634       O642   2.249       .  S
In634       O643   2.212       .  S
In634       O646   2.211       .  S
C635        O641   1.267       .  A
C635        O643   1.262       .  A
C635        C685   1.485       .  S
O636        C644   1.261       .  A
O637        C644   1.268       .  A
C638        O645   1.263       .  A
C638        O639   1.266       .  A
C638        C697   1.484       .  S
C640        O642   1.267       .  A
C640        O646   1.262       .  A
C640        C757   1.486       .  S
C644        C736   1.474       .  S
In647       O649   2.209       .  S
In647       O650   2.251       .  S
In647       O658   2.221       .  S
In647       O652   2.236       .  S
In647       O654   2.232       .  S
In647       O655   2.254       .  S
In647       O656   2.221       .  S
In647       O659   2.198       .  S
C648        O654   1.269       .  A
C648        O656   1.265       .  A
C648        C721   1.487       .  S
O649        C657   1.261       .  A
O650        C657   1.270       .  A
C651        O658   1.263       .  A
C651        O652   1.268       .  A
C651        C712   1.484       .  S
C653        O655   1.271       .  A
C653        O659   1.263       .  A
C653        C772   1.482       .  S
C657        C673   1.473       .  S
In660       O662   2.219       .  S
In660       O663   2.244       .  S
In660       O671   2.226       .  S
In660       O665   2.222       .  S
In660       O667   2.242       .  S
In660       O668   2.258       .  S
In660       O669   2.210       .  S
In660       O672   2.196       .  S
C661        O667   1.268       .  A
C661        O669   1.261       .  A
C661        C688   1.482       .  S
O662        C670   1.262       .  A
O663        C670   1.270       .  A
C664        O671   1.266       .  A
C664        O665   1.265       .  A
C664        C700   1.486       .  S
C666        O668   1.270       .  A
C666        O672   1.262       .  A
C666        C745   1.481       .  S
C670        C676   1.472       .  S
C673        C674   1.404       .  A
C673        C678   1.411       .  A
C674        C675   1.397       .  A
C674        H683   1.084       .  S
C675        C676   1.410       .  A
C675        S679   1.803       .  S
C676        C677   1.405       .  A
C677        C678   1.402       .  A
C677        H684   1.084       .  S
C678        S680   1.803       .  S
S679        H682   1.406       .  S
S680        H681   1.407       .  S
C685        C686   1.408       .  A
C686        H695   1.083       .  S
C687        S691   1.802       .  S
C688        C689   1.407       .  A
C689        H696   1.083       .  S
C690        S692   1.801       .  S
S691        H694   1.408       .  S
S692        H693   1.408       .  S
C697        C698   1.405       .  A
C698        C699   1.397       .  A
C698        H707   1.083       .  S
C699        S703   1.801       .  S
C700        C701   1.407       .  A
C701        C702   1.400       .  A
C701        H708   1.083       .  S
C702        S704   1.801       .  S
S703        H706   1.408       .  S
S704        H705   1.408       .  S
C709        C710   1.405       .  A
C709        C714   1.419       .  A
C710        C711   1.400       .  A
C710        H719   1.083       .  S
C711        C712   1.416       .  A
C711        S715   1.803       .  S
C712        C713   1.402       .  A
C713        C714   1.399       .  A
C713        H720   1.084       .  S
C714        S716   1.801       .  S
S715        H718   1.408       .  S
S716        H717   1.408       .  S
C721        C722   1.410       .  A
C721        C726   1.414       .  A
C722        H731   1.083       .  S
C723        C724   1.412       .  A
C723        S727   1.801       .  S
C724        C725   1.406       .  A
C725        H732   1.082       .  S
C726        S728   1.801       .  S
S727        H730   1.407       .  S
S728        H729   1.408       .  S
C733        C734   1.404       .  A
C733        C738   1.411       .  A
C734        C735   1.401       .  A
C734        H743   1.084       .  S
C735        C736   1.412       .  A
C735        S739   1.802       .  S
C736        C737   1.403       .  A
C737        C738   1.396       .  A
C737        H744   1.084       .  S
C738        S740   1.804       .  S
S739        H742   1.407       .  S
S740        H741   1.407       .  S
C745        C746   1.405       .  A
C745        C750   1.414       .  A
C746        C747   1.391       .  A
C746        H755   1.083       .  S
C747        C748   1.411       .  A
C747        S751   1.806       .  S
C748        C749   1.406       .  A
C749        C750   1.406       .  A
C749        H756   1.083       .  S
C750        S752   1.801       .  S
S751        H754   1.407       .  S
S752        H753   1.407       .  S
C757        C758   1.408       .  A
C757        C762   1.417       .  A
C758        C759   1.395       .  A
C758        H767   1.083       .  S
C759        C760   1.408       .  A
C759        S763   1.805       .  S
C760        C761   1.403       .  A
C761        C762   1.403       .  A
C761        H768   1.083       .  S
C762        S764   1.801       .  S
S763        H766   1.407       .  S
S764        H765   1.407       .  S
C769        C770   1.406       .  A
C769        C774   1.411       .  A
C770        C771   1.404       .  A
C771        C772   1.414       .  A
C772        C773   1.406       .  A
C773        C774   1.393       .  A
C773        H780   1.083       .  S
C774        S776   1.806       .  S
S776        H777   1.407       .  S
C781        C782   1.401       .  A
C781        C786   1.413       .  A
C782        C783   1.393       .  A
C782        H791   1.085       .  S
C783        C784   1.410       .  A
C783        S787   1.801       .  S
C784        C785   1.405       .  A
C785        C786   1.404       .  A
C785        H792   1.084       .  S
C786        S788   1.802       .  S
S787        H790   1.406       .  S
S788        H789   1.406       .  S
