geometry optimzed in LAMMPS
_audit_creation_date              2020-11-30 
_audit_creation_method            'lammps2cif' 
_symmetry_space_group_name_H-M    'P1' 
_symmetry_Int_Tables_number       1 
_symmetry_cell_setting            triclinic 
loop_ 
_symmetry_equiv_pos_as_xyz 
  x,y,z 
_cell_length_a                    57.970193070643006 
_cell_length_b                    58.327870251061675 
_cell_length_c                    58.07955504779284 
_cell_angle_alpha                 89.93426424345866 
_cell_angle_beta                  90.23096601777506 
_cell_angle_gamma                 89.82025395194923 
loop_ 
_atom_site_label 
_atom_site_type_symbol 
_atom_site_fract_x 
_atom_site_fract_y 
_atom_site_fract_z 
_atom_site_charge 
O1          O  0.02510594  0.47296989  0.28569293    -0.80670
O2          O  0.97724930  0.52648064  0.28500257    -0.80690
O3          O  0.05150342  0.52249016  0.26111564    -0.80700
O4          O  0.95152346  0.47587319  0.25844046    -0.80640
O5          O  0.02434951  0.52676908  0.28617592    -0.80770
O6          O  0.97779762  0.47273684  0.28488480    -0.80690
O7          O  0.95120360  0.52293005  0.25837742    -0.80670
O8          O  0.05162546  0.47645109  0.25998484    -0.80710
C9          C  0.04611013  0.47098878  0.28051572     1.09020
C10         C  0.95651133  0.52873649  0.27898215     1.08900
C11         C  0.04553630  0.52835187  0.28147134     1.09040
C12         C  0.95715569  0.46956407  0.27879837     1.08920
O13         O  0.97888447  0.44954135  0.23914041    -0.80670
O14         O  0.02544831  0.54986949  0.24111320    -0.80750
O15         O  0.02868440  0.47667238  0.21388857    -0.80680
O16         O  0.97491665  0.52235420  0.21238596    -0.80660
O17         O  0.97813935  0.54926550  0.23803492    -0.80720
O18         O  0.02540225  0.45019145  0.23964604    -0.80680
O19         O  0.97554295  0.47576927  0.21322103    -0.80640
O20         O  0.02936658  0.52405743  0.21464860    -0.80710
Co21       Co  0.00179595  0.46497382  0.26182214     1.51530
Co22       Co  0.00119344  0.53453410  0.26189923     1.51690
Co23       Co  0.03666983  0.49989006  0.23781862     1.51570
Co24       Co  0.96684922  0.49932488  0.23636652     1.51470
O25         O  0.00162403  0.49975036  0.24952097    -1.42610
C26         C  0.97351699  0.45492443  0.21847235     1.08950
C27         C  0.03229451  0.54454546  0.22099414     1.09040
C28         C  0.03056562  0.45570202  0.21900783     1.08970
C29         C  0.97244530  0.54316178  0.21751154     1.08950
O30         O  0.53036020  0.02256226  0.28695134    -0.80670
O31         O  0.47490051  0.97636513  0.28733349    -0.80690
O32         O  0.47804235  0.05064972  0.26215381    -0.80700
O33         O  0.52452882  0.95026633  0.25832920    -0.80640
O34         O  0.47365300  0.02388078  0.28791464    -0.80770
O35         O  0.52953410  0.97512789  0.28561622    -0.80690
O36         O  0.47831024  0.95045308  0.26072555    -0.80670
O37         O  0.52545174  0.04963003  0.26190304    -0.80710
C38         C  0.53283966  0.04344477  0.28178201     1.09020
C39         C  0.47235640  0.95573315  0.28129060     1.08900
C40         C  0.47112405  0.04466547  0.28214364     1.09040
C41         C  0.53141991  0.95468830  0.27873474     1.08920
O42         O  0.55070168  0.97675818  0.23892249    -0.80670
O43         O  0.45060181  0.02374182  0.24250865    -0.80750
O44         O  0.52423354  0.02751229  0.21560460    -0.80680
O45         O  0.47628598  0.97547504  0.21506979    -0.80660
O46         O  0.45064113  0.97684897  0.24201851    -0.80720
O47         O  0.55141701  0.02291247  0.24067865    -0.80680
O48         O  0.52314043  0.97604837  0.21386663    -0.80640
O49         O  0.47709763  0.02772257  0.21655605    -0.80710
Co50       Co  0.53671826  0.99942162  0.26265508     1.51530
Co51       Co  0.46612652  0.00019639  0.26431854     1.51690
Co52       Co  0.50122802  0.03536824  0.23968781     1.51570
Co53       Co  0.50055525  0.96652716  0.23767513     1.51470
O54         O  0.50110773  0.00050553  0.25156785    -1.42610
C55         C  0.54413026  0.97257891  0.21832643     1.08950
C56         C  0.45628968  0.03022559  0.22233452     1.09040
C57         C  0.54541392  0.02878966  0.22037319     1.08970
C58         C  0.45581147  0.97203604  0.22118411     1.08950
O59         O  0.21333172  0.02705221  0.47477893    -0.80670
O60         O  0.21280590  0.97465698  0.52278440    -0.80690
O61         O  0.23910542  0.97659030  0.44950319    -0.80700
O62         O  0.23912252  0.02516207  0.54874161    -0.80640
O63         O  0.21295710  0.97479021  0.47563306    -0.80770
O64         O  0.21322371  0.02859130  0.52218786    -0.80690
O65         O  0.23876939  0.97815284  0.54962058    -0.80670
O66         O  0.23983178  0.02269283  0.44888532    -0.80710
C67         C  0.21915956  0.02835721  0.45391103     1.09020
C68         C  0.21852896  0.97174192  0.54356124     1.08900
C69         C  0.21839809  0.97137086  0.45497840     1.09040
C70         C  0.21897517  0.03195447  0.54286561     1.08920
O71         O  0.25904091  0.05110761  0.52135276    -0.80670
O72         O  0.25829345  0.95017974  0.47619499    -0.80750
O73         O  0.28545710  0.02326025  0.47307632    -0.80680
O74         O  0.28482825  0.97765118  0.52679897    -0.80660
O75         O  0.25844632  0.95152500  0.52253547    -0.80720
O76         O  0.25932758  0.04960009  0.47499622    -0.80680
O77         O  0.28495194  0.02479341  0.52656758    -0.80640
O78         O  0.28496636  0.97597446  0.47349106    -0.80710
Co79       Co  0.23674038  0.03547582  0.49838085     1.51530
Co80       Co  0.23618774  0.96630572  0.49927721     1.51690
Co81       Co  0.26184977  0.99976155  0.46475454     1.51570
Co82       Co  0.26128818  0.00133290  0.53435080     1.51470
O83         O  0.24905107  0.00073451  0.49931157    -1.42610
C84         C  0.27940458  0.04571072  0.52790831     1.08950
C85         C  0.27887308  0.95544815  0.47043362     1.09040
C86         C  0.28023253  0.04416797  0.47079958     1.08970
C87         C  0.27893502  0.95693819  0.52850497     1.08950
O88         O  0.01966357  0.28483219  0.52904936    -0.80670
O89         O  0.97775409  0.28479249  0.47176439    -0.80690
O90         O  0.05318880  0.26063335  0.47702917    -0.80700
O91         O  0.96175024  0.27162312  0.52357215    -0.80640
O92         O  0.02533078  0.28498091  0.46872290    -0.80770
O93         O  0.98197284  0.27317547  0.55593331    -0.80690
O94         O  0.95056157  0.26083718  0.48009007    -0.80670
O95         O  0.04896610  0.26135934  0.52422001    -0.80710
C96         C  0.04116988  0.28053844  0.53149074     1.09020
C97         C  0.95649841  0.28002016  0.47105791     1.08900
C98         C  0.04667574  0.28014207  0.46913890     1.09040
C99         C  0.96446458  0.27976778  0.54422438     1.08920
O100        O  0.97687469  0.22928960  0.53876105    -0.80670
O101        O  0.02483508  0.23916694  0.44825259    -0.80750
O102        O  0.02890276  0.21516011  0.52392602    -0.80680
O103        O  0.97260425  0.21524669  0.48235924    -0.80660
O104        O  0.97693971  0.23767746  0.45220055    -0.80720
O105        O  0.01978730  0.23949295  0.55073870    -0.80680
O106        O  0.94465264  0.22779547  0.51833239    -0.80640
O107        O  0.03173144  0.21478067  0.47611562    -0.80710
Co108      Co  0.99736752  0.25831436  0.53044915     1.51530
Co109      Co  0.00131541  0.26123955  0.46294068     1.51690
Co110      Co  0.03794807  0.23841219  0.50011817     1.51570
Co111      Co  0.97048573  0.24245732  0.50352305     1.51470
O112        O  0.00430354  0.25022451  0.49686689    -1.42610
C113        C  0.95634861  0.22089668  0.53570702     1.08950
C114        C  0.03244797  0.21963295  0.45486518     1.09040
C115        C  0.02787743  0.21974386  0.54526683     1.08970
C116        C  0.96991703  0.21869771  0.46085634     1.08950
O117        O  0.46945214  0.28472033  0.02392711    -0.80670
O118        O  0.55568824  0.27166716  0.98217686    -0.80690
O119        O  0.52378641  0.26107159  0.04861937    -0.80700
O120        O  0.47923346  0.26020677  0.94948650    -0.80640
O121        O  0.52831380  0.28405616  0.01910620    -0.80770
O122        O  0.46968623  0.28391319  0.97683326    -0.80690
O123        O  0.52314709  0.27162783  0.96205942    -0.80670
O124        O  0.47629403  0.26133244  0.05244100    -0.80710
C125        C  0.46932365  0.28095905  0.04532136     1.09020
C126        C  0.54407057  0.27916490  0.96498540     1.08900
C127        C  0.53073873  0.28023457  0.04062211     1.09040
C128        C  0.46948371  0.27898912  0.95560579     1.08920
O129        O  0.45071887  0.23672480  0.97746772    -0.80670
O130        O  0.54988911  0.23774871  0.01987089    -0.80750
O131        O  0.47532985  0.21462219  0.03326443    -0.80680
O132        O  0.51834787  0.22822611  0.94381856    -0.80660
O133        O  0.53817726  0.22834579  0.97640450    -0.80720
O134        O  0.44781474  0.23892267  0.02517938    -0.80680
O135        O  0.48133892  0.21521659  0.97077678    -0.80640
O136        O  0.52209103  0.21432982  0.02916262    -0.80710
Co137      Co  0.46216453  0.26054879  0.00100492     1.51530
Co138      Co  0.52990181  0.25708883  0.99715899     1.51690
Co139      Co  0.49920837  0.23833158  0.03796145     1.51570
Co140      Co  0.50280135  0.24230925  0.96963834     1.51470
O141        O  0.49604021  0.24918545  0.00375909    -1.42610
C142        C  0.45953743  0.21830376  0.96927360     1.08950
C143        C  0.54345889  0.21855843  0.02867992     1.09040
C144        C  0.45417995  0.21962388  0.03366765     1.08970
C145        C  0.53561112  0.22100110  0.95544612     1.08950
O146        O  0.28634590  0.52525234  0.02344930    -0.80670
O147        O  0.28580527  0.47257732  0.97646057    -0.80690
O148        O  0.26005692  0.47709587  0.05017892    -0.80700
O149        O  0.25930032  0.52382043  0.95037077    -0.80640
O150        O  0.28584506  0.47288229  0.02369884    -0.80770
O151        O  0.28589147  0.52588928  0.97623365    -0.80690
O152        O  0.25957103  0.47776846  0.95019489    -0.80670
O153        O  0.26058786  0.52328902  0.05033244    -0.80710
C154        C  0.28114491  0.52833237  0.04427998     1.09020
C155        C  0.27995484  0.47124953  0.95553373     1.08900
C156        C  0.28072557  0.47180011  0.04473890     1.09040
C157        C  0.28016836  0.52864362  0.95545795     1.08920
O158        O  0.24017811  0.54994838  0.97740386    -0.80670
O159        O  0.23959970  0.45024674  0.02375237    -0.80750
O160        O  0.21438165  0.52441648  0.02748352    -0.80680
O161        O  0.21400347  0.47661576  0.97328790    -0.80660
O162        O  0.24008414  0.45027308  0.97627709    -0.80720
O163        O  0.24101610  0.54989524  0.02367914    -0.80680
O164        O  0.21369211  0.52415848  0.97354254    -0.80640
O165        O  0.21401025  0.47711770  0.02685245    -0.80710
Co166      Co  0.26282215  0.53427513  0.00017527     1.51530
Co167      Co  0.26215552  0.46507096  0.00014488     1.51690
Co168      Co  0.23772269  0.50040982  0.03512087     1.51570
Co169      Co  0.23715319  0.50054314  0.96547929     1.51470
O170        O  0.24988602  0.50001654  0.00020534    -1.42610
C171        C  0.21953907  0.54489447  0.97147701     1.08950
C172        C  0.21921083  0.45627483  0.02971993     1.09040
C173        C  0.22041856  0.54506106  0.02975827     1.08970
C174        C  0.21989392  0.45609472  0.96956073     1.08950
O175        O  0.52667550  0.05113959  0.73711089    -0.80670
O176        O  0.47703716  0.96274220  0.72631279    -0.80690
O177        O  0.52967555  0.97595586  0.71546743    -0.80700
O178        O  0.47183074  0.01893509  0.71472532    -0.80640
O179        O  0.52029870  0.94913799  0.73956578    -0.80770
O180        O  0.47827518  0.04858608  0.73695969    -0.80690
O181        O  0.44438662  0.98204875  0.72855692    -0.80670
O182        O  0.53439852  0.02251284  0.71382447    -0.80710
C183        C  0.53547419  0.04365863  0.71819577     1.09020
C184        C  0.45557127  0.96518147  0.72010575     1.08900
C185        C  0.52977003  0.95486319  0.72057028     1.09040
C186        C  0.47021777  0.04058712  0.71818215     1.08920
O187        O  0.47839478  0.03058496  0.78383918    -0.80670
O188        O  0.51763500  0.97071254  0.78452767    -0.80750
O189        O  0.55359394  0.02284810  0.76103535    -0.80680
O190        O  0.46343979  0.97758706  0.77205737    -0.80660
O191        O  0.48072518  0.94417284  0.76978949    -0.80720
O192        O  0.52566711  0.03189603  0.78471047    -0.80680
O193        O  0.45123168  0.02013024  0.76010826    -0.80640
O194        O  0.54813341  0.97626597  0.76316006    -0.80710
Co195      Co  0.50242465  0.03774184  0.76008740     1.51530
Co196      Co  0.49687894  0.96984294  0.75639092     1.51690
Co197      Co  0.53864606  0.99960442  0.73876147     1.51570
Co198      Co  0.47085917  0.99717073  0.74206291     1.51470
O199        O  0.50477242  0.00371664  0.74940725    -1.42610
C200        C  0.45700388  0.02888677  0.77945225     1.08950
C201        C  0.53945579  0.96900110  0.78196646     1.09040
C202        C  0.54697335  0.03061400  0.78055935     1.08970
C203        C  0.46492474  0.95639419  0.77884201     1.08950
O204        O  0.74125586  0.52408531  0.05049119    -0.80670
O205        O  0.74023051  0.47821704  0.95141256    -0.80690
O206        O  0.71443550  0.52671037  0.97697504    -0.80700
O207        O  0.71548221  0.47457149  0.02451098    -0.80640
O208        O  0.74064399  0.52459610  0.95077919    -0.80770
O209        O  0.74159936  0.47809673  0.05078404    -0.80690
O210        O  0.71450896  0.47520640  0.97827944    -0.80670
O211        O  0.71468921  0.52678930  0.02443863    -0.80710
C212        C  0.72029665  0.52861988  0.04536514     1.09020
C213        C  0.71957297  0.47328239  0.95740411     1.08900
C214        C  0.71995626  0.52969089  0.95619676     1.09040
C215        C  0.72090979  0.47273019  0.04539445     1.08920
O216        O  0.78723813  0.47772378  0.02702262    -0.80670
O217        O  0.78626438  0.52519323  0.97412139    -0.80750
O218        O  0.76008460  0.55082461  0.02357280    -0.80680
O219        O  0.76127781  0.45195628  0.97719183    -0.80660
O220        O  0.78728334  0.47848429  0.97415997    -0.80720
O221        O  0.78687454  0.52507706  0.02721038    -0.80680
O222        O  0.76124869  0.45125228  0.02415647    -0.80640
O223        O  0.75974539  0.55095546  0.97748124    -0.80710
Co224      Co  0.76377859  0.50124273  0.03538550     1.51530
Co225      Co  0.76312751  0.50150498  0.96606606     1.51690
Co226      Co  0.73773925  0.53538216  0.00066468     1.51570
Co227      Co  0.73872298  0.46661152  0.00095346     1.51470
O228        O  0.75096629  0.50119824  0.00081668    -1.42610
C229        C  0.78172172  0.45700164  0.02991075     1.08950
C230        C  0.78043018  0.54589271  0.97188290     1.09040
C231        C  0.78097085  0.54588001  0.02872874     1.08970
C232        C  0.78186578  0.45777419  0.97173865     1.08950
O233        O  0.04908176  0.74055397  0.52402462    -0.80670
O234        O  0.94901162  0.73785019  0.47681135    -0.80690
O235        O  0.97583676  0.71346517  0.52742600    -0.80700
O236        O  0.02318007  0.71280257  0.47520147    -0.80640
O237        O  0.94881929  0.73864322  0.52277030    -0.80770
O238        O  0.04878775  0.73939452  0.47734898    -0.80690
O239        O  0.97562129  0.71194511  0.47453126    -0.80670
O240        O  0.02306382  0.71425752  0.52829525    -0.80710
C241        C  0.04388571  0.72010993  0.53017329     1.09020
C242        C  0.95441014  0.71692698  0.47318905     1.08900
C243        C  0.95463573  0.71830026  0.52852596     1.09040
C244        C  0.04392128  0.71859760  0.47259023     1.08920
O245        O  0.02388569  0.78432831  0.47578062    -0.80670
O246        O  0.97095990  0.78459434  0.52298268    -0.80750
O247        O  0.02184260  0.76114639  0.54996230    -0.80680
O248        O  0.97569448  0.75695591  0.44980589    -0.80660
O249        O  0.97139866  0.78384870  0.47528936    -0.80720
O250        O  0.02498295  0.78624142  0.52247895    -0.80680
O251        O  0.02231670  0.75779295  0.44997925    -0.80640
O252        O  0.97437545  0.75896435  0.54961750    -0.80710
Co253      Co  0.03319915  0.76200702  0.49993636     1.51530
Co254      Co  0.96368130  0.76086438  0.49948719     1.51690
Co255      Co  0.99885594  0.73751729  0.53534765     1.51570
Co256      Co  0.99916179  0.73547367  0.46585639     1.51470
O257        O  0.99870281  0.74895799  0.50022076    -1.42610
C258        C  0.02721286  0.77855513  0.45519836     1.08950
C259        C  0.96763774  0.77895601  0.54368791     1.09040
C260        C  0.02780909  0.78131371  0.54338283     1.08970
C261        C  0.96982002  0.77756552  0.45452456     1.08950
O262        O  0.02466614  0.52465243  0.78790982    -0.80670
O263        O  0.97169118  0.47792242  0.78644988    -0.80690
O264        O  0.97369708  0.55168894  0.76168669    -0.80700
O265        O  0.02221472  0.45274357  0.76117310    -0.80640
O266        O  0.97077626  0.52494583  0.78706817    -0.80770
O267        O  0.02516194  0.47901368  0.78728827    -0.80690
O268        O  0.97544397  0.45151778  0.76038141    -0.80670
O269        O  0.02120508  0.55186320  0.76273079    -0.80710
C270        C  0.02730296  0.54542200  0.78300052     1.09020
C271        C  0.96953434  0.45714940  0.78073885     1.08900
C272        C  0.96746860  0.54565811  0.78186212     1.09040
C273        C  0.02807099  0.45851128  0.78162853     1.08920
O274        O  0.04815004  0.47921190  0.74058356    -0.80670
O275        O  0.94728185  0.52504659  0.74120343    -0.80750
O276        O  0.02105306  0.52905915  0.71606743    -0.80680
O277        O  0.97469183  0.47487597  0.71483954    -0.80660
O278        O  0.94830319  0.47853246  0.74095522    -0.80720
O279        O  0.04786633  0.52588868  0.74158861    -0.80680
O280        O  0.02147779  0.47570392  0.71460427    -0.80640
O281        O  0.97428839  0.52943351  0.71577985    -0.80710
Co282      Co  0.03290860  0.50217749  0.76365442     1.51530
Co283      Co  0.96304255  0.50166439  0.76338146     1.51690
Co284      Co  0.99767171  0.53706262  0.73964369     1.51570
Co285      Co  0.99844771  0.46733135  0.73841346     1.51470
O286        O  0.99791288  0.50205639  0.75117396    -1.42610
C287        C  0.04230407  0.47324444  0.72016301     1.08950
C288        C  0.95333352  0.53161554  0.72109680     1.09040
C289        C  0.04201998  0.53129540  0.72106789     1.08970
C290        C  0.95389516  0.47258986  0.72056641     1.08950
O291        O  0.52577201  0.71273810  0.02364724    -0.80670
O292        O  0.47141457  0.71374163  0.97752893    -0.80690
O293        O  0.47825632  0.73865459  0.05123416    -0.80700
O294        O  0.52239848  0.73698966  0.95001863    -0.80640
O295        O  0.47322607  0.71306006  0.02482223    -0.80770
O296        O  0.52652914  0.71170258  0.97717885    -0.80690
O297        O  0.47465833  0.73945858  0.95106474    -0.80670
O298        O  0.52464620  0.73842460  0.05015486    -0.80710
C299        C  0.52887019  0.71768412  0.04444996     1.09020
C300        C  0.46738048  0.71974385  0.95703454     1.08900
C301        C  0.47259284  0.71815637  0.04590926     1.09040
C302        C  0.52877938  0.71676883  0.95624733     1.08920
O303        O  0.55007317  0.75751014  0.97639435    -0.80670
O304        O  0.45039680  0.75898073  0.02590368    -0.80750
O305        O  0.52454595  0.78409487  0.02671633    -0.80680
O306        O  0.47678409  0.78427408  0.97420954    -0.80660
O307        O  0.44951285  0.75964576  0.97893392    -0.80720
O308        O  0.55098031  0.75788615  0.02316191    -0.80680
O309        O  0.52357361  0.78353274  0.97278265    -0.80640
O310        O  0.47702713  0.78463460  0.02787360    -0.80710
Co311      Co  0.53481520  0.73562496  0.00015852     1.51530
Co312      Co  0.46478458  0.73689147  0.00173357     1.51690
Co313      Co  0.50099392  0.76096300  0.03539220     1.51570
Co314      Co  0.49953760  0.76037656  0.96551453     1.51470
O315        O  0.50001574  0.74848446  0.00057951    -1.42610
C316        C  0.54447721  0.77805380  0.97088130     1.08950
C317        C  0.45616252  0.77946171  0.03118131     1.09040
C318        C  0.54542176  0.77829490  0.02907571     1.08970
C319        C  0.45573052  0.77946601  0.97204745     1.08950
C320        C  0.83413031  0.29240935  0.63038154     0.41920
N321        N  0.83979560  0.32712846  0.63914184     0.00810
C322        C  0.75160048  0.40405464  0.65527667    -0.07060
H323        H  0.74307874  0.35667259  0.58384931     0.06310
C324        C  0.82797288  0.37962085  0.55776161    -0.07410
Co325      Co  0.79616331  0.34884119  0.65362515     0.74180
N326        N  0.76843270  0.35561046  0.61131307    -0.26590
Co327      Co  0.78441305  0.38775757  0.61383069     0.74070
C328        C  0.80623507  0.37113108  0.54860501     0.42030
N329        N  0.86961085  0.36807759  0.59581888     0.00430
N330        N  0.80061189  0.38302790  0.58259173     0.00540
N331        N  0.76192361  0.37719573  0.68145505    -0.47440
H332        H  0.79598492  0.29388174  0.64047877     0.06290
N333        N  0.77317878  0.34024158  0.62720656     0.00820
N334        N  0.80095288  0.41867041  0.61717471     0.00560
C335        C  0.80661695  0.45314809  0.62634642     0.42170
N336        N  0.87238723  0.35308427  0.61243578    -0.26050
C337        C  0.81655641  0.36154045  0.70133434    -0.06970
N338        N  0.85015427  0.30882716  0.63118946    -0.47150
N339        N  0.79027049  0.43717114  0.62451744    -0.47380
C340        C  0.83896613  0.37011118  0.70886119     0.41940
N341        N  0.77449901  0.37569103  0.66251989     0.00810
N342        N  0.87285192  0.38905302  0.64701682    -0.26070
N343        N  0.81781008  0.32353886  0.64349883    -0.26560
N344        N  0.86888026  0.40558671  0.63223231     0.00450
H345        H  0.89408770  0.38614245  0.67741751     0.06340
H346        H  0.84517078  0.45153528  0.61780211     0.06370
N347        N  0.76896571  0.39103651  0.64679410    -0.26610
N348        N  0.82302159  0.38620724  0.57906208    -0.26220
N349        N  0.84058193  0.36343179  0.67341657     0.00810
C350        C  0.74598614  0.32466029  0.60719680     0.42210
C351        C  0.88798822  0.33723821  0.60653218    -0.07480
N352        N  0.82333604  0.42196687  0.61360205    -0.26220
H353        H  0.84491193  0.37995468  0.55004316     0.06360
N354        N  0.76014740  0.32164674  0.62554705    -0.47450
H355        H  0.89413437  0.32344312  0.61742525     0.06340
C356        C  0.89202986  0.42041103  0.65799012     0.42040
C357        C  0.81263414  0.30192950  0.63849171    -0.06970
Co358      Co  0.85634736  0.35772743  0.64332780     0.73820
N359        N  0.88321571  0.36302154  0.57781110    -0.47160
C360        C  0.74713604  0.39487356  0.67856377     0.42310
N361        N  0.85240140  0.37157037  0.69062535    -0.47150
Co362      Co  0.84643755  0.39632371  0.60423295     0.73890
C363        C  0.82834955  0.44364201  0.61874361    -0.07480
C364        C  0.75142256  0.34741236  0.59772738    -0.07040
N365        N  0.81922445  0.35814656  0.67875757    -0.26570
N366        N  0.78999962  0.37410167  0.56463651    -0.47330
H367        H  0.74227553  0.41716740  0.64587515     0.06320
C368        C  0.88762634  0.39634625  0.66321786    -0.07460
Cl369      Cl  0.82068054  0.37286159  0.62847619    -0.50460
C370        C  0.89530793  0.34346534  0.58356381     0.42070
H371        H  0.80098931  0.35861717  0.71109468     0.06280
N372        N  0.87992061  0.42491924  0.63812108    -0.47170
C373        C  0.58101634  0.34797476  0.89947910     0.41920
N374        N  0.60889806  0.35954948  0.87788246     0.00810
C375        C  0.62403139  0.43390912  0.78730443    -0.07060
H376        H  0.56395197  0.36615517  0.77180927     0.06310
C377        C  0.63116652  0.31572099  0.76952937    -0.07410
Co378      Co  0.60176192  0.39817838  0.84550431     0.74180
N379        N  0.58369992  0.37945589  0.80022112    -0.26590
Co380      Co  0.61570088  0.38308348  0.78568809     0.74070
C381        C  0.61295657  0.31874900  0.75232735     0.42030
N382        N  0.64428211  0.32464695  0.82898462     0.00430
N383        N  0.61540653  0.34914233  0.77344088     0.00540
N384        N  0.61539837  0.44321300  0.82420790    -0.47440
H385        H  0.55622544  0.37452740  0.88230350     0.06290
N386        N  0.57853299  0.38447978  0.82191940     0.00820
N387        N  0.64946085  0.38611926  0.77244263     0.00560
C388        C  0.67944446  0.39207496  0.75124370     0.42170
N389        N  0.63739660  0.33067314  0.84973984    -0.26050
C390        C  0.63437962  0.43149581  0.87824238    -0.06970
N391        N  0.60340616  0.34509315  0.89456388    -0.47150
N392        N  0.65699508  0.39805827  0.75439686    -0.47380
C393        C  0.65556287  0.42673151  0.89241417     0.41940
N394        N  0.61187835  0.42130393  0.82026869     0.00810
N395        N  0.67198427  0.36577813  0.84937087    -0.26070
N396        N  0.59201694  0.37290185  0.87107287    -0.26560
N397        N  0.67829519  0.35988445  0.82849238     0.00450
H398        H  0.68982148  0.37628844  0.87931762     0.06340
H399        H  0.70020699  0.36435924  0.77065024     0.06370
N400        N  0.61682300  0.41556258  0.79871274    -0.26610
N401        N  0.63146832  0.33535927  0.78149251    -0.26220
N402        N  0.64311598  0.39578949  0.87559891     0.00810
C403        C  0.54769982  0.37157889  0.80724731     0.42210
C404        C  0.62761872  0.31282637  0.85976207    -0.07480
N405        N  0.66524815  0.37210872  0.78076832    -0.26220
H406        H  0.64361015  0.30195468  0.77117341     0.06360
N407        N  0.55686952  0.38006187  0.82671219    -0.47450
H408        H  0.62099848  0.31195185  0.87703337     0.06340
C409        C  0.70883642  0.36866388  0.84612006     0.42040
C410        C  0.57311166  0.36669105  0.88358073    -0.06970
Co411      Co  0.64067712  0.36261764  0.86323908     0.73820
N412        N  0.64121045  0.30275681  0.82495097    -0.47160
C413        C  0.62348876  0.45164355  0.80433485     0.42310
N414        N  0.65913007  0.40404616  0.88964136    -0.47150
Co415      Co  0.65546916  0.34759107  0.80508687     0.73890
C416        C  0.68480936  0.37471770  0.76873572    -0.07480
C417        C  0.56510327  0.37128937  0.78966388    -0.07040
N418        N  0.62808272  0.41111646  0.86856668    -0.26570
N419        N  0.60427094  0.34019656  0.75546950    -0.47330
H420        H  0.62939413  0.43449828  0.76950690     0.06320
C421        C  0.68998459  0.37245427  0.86123697    -0.07460
Cl422      Cl  0.62825474  0.37311475  0.82465185    -0.50460
C423        C  0.63129346  0.29441815  0.84400175     0.42070
H424        H  0.62566011  0.44764816  0.87532162     0.06280
N425        N  0.70072632  0.36090776  0.82585778    -0.47170
C426        C  0.64815641  0.16123396  0.70512493     0.41920
N427        N  0.65038698  0.15992506  0.66945962     0.00810
C428        C  0.65110707  0.25058091  0.59486356    -0.07060
H429        H  0.58518256  0.25504279  0.64974056     0.06310
C430        C  0.55938527  0.16848266  0.62199848    -0.07410
Co431      Co  0.65674231  0.20524134  0.64910008     0.74180
N432        N  0.61224047  0.22942860  0.64761492    -0.26590
Co433      Co  0.61259119  0.21515521  0.61407118     0.74070
C434        C  0.54819878  0.18991647  0.62819442     0.42030
N435        N  0.60315453  0.13021004  0.63197001     0.00430
N436        N  0.58307946  0.19685545  0.62034320     0.00540
N437        N  0.67917279  0.24154116  0.62031237    -0.47440
H438        H  0.65359874  0.20035818  0.70654108     0.06290
N439        N  0.62952663  0.22443516  0.66150283     0.00820
N440        N  0.61377688  0.20017474  0.58212111     0.00560
C441        C  0.61703093  0.19641988  0.54625669     0.42170
N442        N  0.62108369  0.12779336  0.64561277    -0.26050
C443        C  0.70346671  0.19339718  0.63016290    -0.06970
N444        N  0.64715117  0.14709863  0.68740905    -0.47150
N445        N  0.61761789  0.21187916  0.56319543    -0.47380
C446        C  0.71487573  0.17280018  0.62256723     0.41940
N447        N  0.66080725  0.22853606  0.62302404     0.00810
N448        N  0.65299889  0.13137863  0.60645186    -0.26070
N449        N  0.65288612  0.18176949  0.67441060    -0.26560
N450        N  0.63597740  0.13337927  0.59164418     0.00450
H451        H  0.68512314  0.11272633  0.60719143     0.06340
H452        H  0.61094136  0.15747717  0.54756836     0.06370
N453        N  0.64395586  0.23313774  0.60856201    -0.26610
N454        N  0.58089922  0.17446742  0.61691929    -0.26220
N455        N  0.68017868  0.16465298  0.63036290     0.00810
C456        C  0.61115715  0.25082402  0.67979336     0.42210
C457        C  0.61557273  0.11315583  0.66266800    -0.07480
N458        N  0.61114221  0.17787701  0.57833652    -0.26220
H459        H  0.55204184  0.15160633  0.61978212     0.06360
N460        N  0.62976549  0.23691592  0.68050144    -0.47450
H461        H  0.62693457  0.10872865  0.67673979     0.06340
C462        C  0.66160945  0.11094772  0.57562484     0.42040
C463        C  0.65195589  0.18443714  0.69716188    -0.06970
Co464      Co  0.65156620  0.14591044  0.63829133     0.73820
N465        N  0.58532115  0.11735009  0.63871834    -0.47160
C466        C  0.67491283  0.25590464  0.60273592     0.42310
N467        N  0.69917941  0.15594537  0.62195497    -0.47150
Co468      Co  0.60696342  0.15373350  0.60396399     0.73890
C469        C  0.61236895  0.17400622  0.55587089    -0.07480
C470        C  0.59946598  0.24602629  0.65769904    -0.07040
N471        N  0.68235531  0.18650314  0.63536971    -0.26570
N472        N  0.56375368  0.20671461  0.62677472    -0.47330
H473        H  0.64076747  0.25906375  0.58184518     0.06320
C474        C  0.66959271  0.11781898  0.59813290    -0.07460
Cl475      Cl  0.63176041  0.18002040  0.62629229    -0.50460
C476        C  0.59169704  0.10562205  0.65820593     0.42070
H477        H  0.71061886  0.21010962  0.63378010     0.06280
N478        N  0.64021726  0.12092478  0.57264372    -0.47170
C479        C  0.86479915  0.20572884  0.65491904     0.41920
N480        N  0.85760606  0.17024683  0.65368815     0.00810
C481        C  0.84594453  0.09839700  0.74653269    -0.07060
H482        H  0.91219357  0.14768911  0.75545306     0.06310
C483        C  0.94283886  0.12360119  0.67004756    -0.07410
Co484      Co  0.84545523  0.15147388  0.69904988     0.74180
N485        N  0.88768473  0.14771290  0.72728345    -0.26590
Co486      Co  0.88698864  0.11440202  0.71311040     0.74070
C487        C  0.95173365  0.13185268  0.69190501     0.42030
N488        N  0.90400203  0.13081144  0.62796088     0.00430
N489        N  0.91780960  0.11983045  0.69705924     0.00540
N490        N  0.81916199  0.12436511  0.73530678    -0.47440
H491        H  0.85459970  0.20761614  0.69343904     0.06290
N492        N  0.87178076  0.16255537  0.72085913     0.00820
N493        N  0.88579718  0.08225039  0.69836449     0.00560
C494        C  0.88024782  0.04680058  0.69425086     0.42170
N495        N  0.88611115  0.14395356  0.62353780    -0.26050
C496        C  0.79837170  0.13577740  0.68159256    -0.06970
N497        N  0.86466267  0.18751454  0.64125415    -0.47150
N498        N  0.88019081  0.06362039  0.70988421    -0.47380
C499        C  0.78953000  0.12633907  0.65994941     0.41940
N500        N  0.83806011  0.12573399  0.72264796     0.00810
N501        N  0.85346579  0.10648477  0.62678656    -0.26070
N502        N  0.85350042  0.17578653  0.67519463    -0.26560
N503        N  0.87012831  0.09155109  0.62956766     0.00450
H504        H  0.82212010  0.10744934  0.60724122     0.06340
H505        H  0.88825809  0.04755822  0.65560494     0.06370
N506        N  0.85411219  0.11081733  0.72862833    -0.26610
N507        N  0.92170000  0.11631402  0.67484426    -0.26220
N508        N  0.82541605  0.13175515  0.65710507     0.00810
C509        C  0.88879039  0.17930165  0.74946473     0.42210
C510        C  0.89150486  0.15914635  0.60707983    -0.07480
N511        N  0.88976666  0.07823293  0.67619150    -0.26220
H512        H  0.95115304  0.12277949  0.65343227     0.06360
N513        N  0.87167727  0.18135627  0.73366356    -0.47450
H514        H  0.87994806  0.17160585  0.59959717     0.06340
C515        C  0.84584925  0.07631641  0.60514688     0.42040
C516        C  0.85709142  0.19814297  0.67766523    -0.06970
Co517      Co  0.85514096  0.13846835  0.64036823     0.73820
N518        N  0.92228254  0.13673341  0.61514489    -0.47160
C519        C  0.82246141  0.10740198  0.75076693     0.42310
N520        N  0.80775470  0.12229995  0.64681549    -0.47150
Co521      Co  0.89746108  0.10337091  0.65206484     0.73890
C522        C  0.88667732  0.05600463  0.67209401    -0.07480
C523        C  0.89944060  0.15671488  0.74523199    -0.07040
N524        N  0.82062000  0.13914303  0.67781589    -0.26570
N525        N  0.93554263  0.12879445  0.70787949    -0.47330
H526        H  0.85566523  0.08586289  0.75632549     0.06320
C527        C  0.83746605  0.09837614  0.61256926    -0.07460
Cl528      Cl  0.87144384  0.12684482  0.67622615    -0.50460
C529        C  0.91546434  0.15474794  0.60144656     0.42070
H530        H  0.78934858  0.14085863  0.69702826     0.06280
N531        N  0.86643135  0.07283287  0.61661418    -0.47170
C532        C  0.60411999  0.15418162  0.92087123     0.41920
N533        N  0.62549683  0.14260505  0.89293549     0.00810
C534        C  0.71418511  0.06625360  0.87560393    -0.07060
H535        H  0.73208388  0.13741724  0.93357304     0.06310
C536        C  0.73205001  0.18462601  0.86669926    -0.07410
Co537      Co  0.65757708  0.10323881  0.89985694     0.74180
N538        N  0.70334978  0.12200223  0.91589590    -0.26590
Co539      Co  0.71637422  0.11740823  0.88335872     0.74070
C540        C  0.74934320  0.18202972  0.88496536     0.42030
N541        N  0.67254539  0.17620523  0.85549791     0.00430
N542        N  0.72870764  0.15128355  0.88257431     0.00540
N543        N  0.67751937  0.05763320  0.88600780    -0.47440
H544        H  0.62102107  0.12720479  0.94536049     0.06290
N545        N  0.68199801  0.11686202  0.92220914     0.00820
N546        N  0.72823930  0.11391136  0.84896403     0.00560
C547        C  0.74906241  0.10864338  0.81848305     0.42170
N548        N  0.65153977  0.17095206  0.86228382    -0.26050
C549        C  0.62432385  0.06991186  0.86832457    -0.06970
N550        N  0.60897881  0.15718099  0.89859791    -0.47150
N551        N  0.74656300  0.10256987  0.84097926    -0.47380
C552        C  0.60975350  0.07445822  0.84754880     0.41940
N553        N  0.68203917  0.07946551  0.88936751     0.00810
N554        N  0.64963620  0.13551917  0.82877872    -0.26070
N555        N  0.63239330  0.12908758  0.90967567    -0.26560
N556        N  0.67059305  0.14011742  0.82161525     0.00450
H557        H  0.61846165  0.12473916  0.81230061     0.06340
H558        H  0.72858279  0.13606487  0.79847347     0.06370
N559        N  0.70339299  0.08485244  0.88332518    -0.26610
N560        N  0.72029369  0.16484611  0.86651219    -0.26220
N561        N  0.62591226  0.10572441  0.85953093     0.00810
C562        C  0.69760020  0.13166979  0.95172187     0.42210
C563        C  0.64177772  0.18928244  0.87144907    -0.07480
N564        N  0.71916258  0.12768346  0.83335985    -0.26220
H565        H  0.72979193  0.19852529  0.85454783     0.06360
N566        N  0.67802237  0.12214871  0.94384791    -0.47450
H567        H  0.62432327  0.19075355  0.87765374     0.06340
C568        C  0.65163631  0.12946385  0.79247867     0.42040
C569        C  0.61989540  0.13525828  0.92861313    -0.06970
Co570      Co  0.63805573  0.13906904  0.86054749     0.73820
N571        N  0.67758400  0.19782045  0.85905688    -0.47160
C572        C  0.69687940  0.04874186  0.87712064     0.42310
N573        N  0.61185354  0.09710634  0.84377330    -0.47150
Co574      Co  0.69540478  0.15260532  0.84352412     0.73890
C575        C  0.73088268  0.12544951  0.81359586    -0.07480
C576        C  0.71439880  0.13157832  0.93350877    -0.07040
N577        N  0.63366264  0.09049895  0.87437630    -0.26570
N578        N  0.74643647  0.16063959  0.89380035    -0.47330
H579        H  0.73160406  0.06541959  0.86906486     0.06320
C580        C  0.63665240  0.12852859  0.81160685    -0.07460
Cl581      Cl  0.67696193  0.12793166  0.87187242    -0.50460
C582        C  0.65888328  0.20678424  0.86909055     0.42070
H583        H  0.62778827  0.05373159  0.87678056     0.06280
N584        N  0.67253132  0.13702814  0.79931877    -0.47170
C585        C  0.79658574  0.33979967  0.87043660     0.41920
N586        N  0.83110918  0.34487994  0.86086214     0.00810
C587        C  0.90231469  0.25260309  0.84442640    -0.07060
H588        H  0.85267853  0.24486178  0.91201713     0.06310
C589        C  0.87994212  0.32707107  0.94380075    -0.07410
Co590      Co  0.85137131  0.30135055  0.84495812     0.74180
N591        N  0.85440836  0.27157661  0.88615581    -0.26590
Co592      Co  0.88756549  0.28590348  0.88596527     0.74070
C593        C  0.87166644  0.30517195  0.95210582     0.42030
N594        N  0.87020463  0.36985517  0.90731197     0.00430
N595        N  0.88258926  0.30093034  0.91767960     0.00540
N596        N  0.87797561  0.26639909  0.81738105    -0.47440
H597        H  0.79643685  0.30249633  0.85834109     0.06290
N598        N  0.84023760  0.27773309  0.86955314     0.00820
N599        N  0.91940972  0.30098440  0.88477053     0.00560
C600        C  0.95462161  0.30502619  0.87763615     0.42170
N601        N  0.85684523  0.37501266  0.88987557    -0.26050
C602        C  0.86831450  0.32224339  0.79943794    -0.06970
N603        N  0.81344317  0.35521904  0.87015344    -0.47150
N604        N  0.93778534  0.28955809  0.87814312    -0.47380
C605        C  0.87755248  0.34449574  0.79263878     0.41940
N606        N  0.87751884  0.27901739  0.83626284     0.00810
N607        N  0.89353716  0.37520924  0.85651176    -0.26070
N608        N  0.82672647  0.32346985  0.85528247    -0.26560
N609        N  0.90968904  0.37044792  0.87159749     0.00450
H610        H  0.89099567  0.39737477  0.82695495     0.06340
H611        H  0.95453954  0.34327076  0.88698599     0.06370
N612        N  0.89142043  0.27149378  0.85256287    -0.26610
N613        N  0.88635534  0.32294768  0.92223301    -0.26220
N614        N  0.86837581  0.34577553  0.82765577     0.00810
C615        C  0.82215180  0.25043501  0.88681509     0.42210
C616        C  0.84102989  0.39041719  0.89618519    -0.07480
N617        N  0.92358989  0.32300543  0.88910503    -0.26220
H618        H  0.88103574  0.34335607  0.95261281     0.06360
N619        N  0.82098404  0.26552428  0.86916247    -0.47450
H620        H  0.82890926  0.39837186  0.88447214     0.06340
C621        C  0.92463632  0.39483605  0.84721493     0.42040
C622        C  0.80507938  0.31871423  0.86068693    -0.06970
Co623      Co  0.86206478  0.36022673  0.85833617     0.73820
N624        N  0.86318310  0.38061255  0.92655353    -0.47160
C625        C  0.89333127  0.24931996  0.82075480     0.42310
N626        N  0.87790048  0.35760554  0.81117209    -0.47150
Co627      Co  0.89841835  0.34681283  0.89852684     0.73890
C628        C  0.94582869  0.32699862  0.88518853    -0.07480
C629        C  0.84458268  0.25436085  0.89815834    -0.07040
N630        N  0.86309521  0.32474882  0.82158266    -0.26570
N631        N  0.87425965  0.28962022  0.93541323    -0.47330
H632        H  0.91304071  0.24118040  0.85454433     0.06320
C633        C  0.90099868  0.39033875  0.84105538    -0.07460
Cl634      Cl  0.87517857  0.32334837  0.87220081    -0.50460
C635        C  0.84411688  0.39372617  0.92089738     0.42070
H636        H  0.86571563  0.30691326  0.78930525     0.06280
N637        N  0.92918343  0.38192724  0.86665358    -0.47170
C638        C  0.28925955  0.16352069  0.63395743     0.41920
N639        N  0.32498310  0.15877994  0.64172686     0.00810
C640        C  0.40280055  0.24780964  0.65260885    -0.07060
H641        H  0.35275442  0.25512323  0.58213288     0.06310
C642        C  0.37748231  0.17001183  0.55724498    -0.07410
Co643      Co  0.34731536  0.20331226  0.65224871     0.74180
N644        N  0.35306301  0.22984456  0.60954631    -0.26590
Co645      Co  0.38588128  0.21427550  0.61211820     0.74070
C646        C  0.36930422  0.19153881  0.54772275     0.42030
N647        N  0.36653051  0.13068684  0.59668863     0.00430
N648        N  0.38077067  0.19756982  0.58168672     0.00540
N649        N  0.37578636  0.23862443  0.67895972    -0.47440
H650        H  0.29351316  0.20257854  0.63343390     0.06290
N651        N  0.33791087  0.22479202  0.62547479     0.00820
N652        N  0.41740242  0.19842939  0.61497090     0.00560
C653        C  0.45312742  0.19364491  0.61910845     0.42170
N654        N  0.35152059  0.12715432  0.61321536    -0.26050
C655        C  0.36170273  0.18772215  0.70033088    -0.06970
N656        N  0.30605135  0.14780683  0.63646080    -0.47150
N657        N  0.43665578  0.20970095  0.61883032    -0.47380
C658        C  0.36816277  0.16614882  0.71097518     0.41940
N659        N  0.37408483  0.22563918  0.66031878     0.00810
N660        N  0.38819486  0.12766805  0.64852833    -0.26070
N661        N  0.32186402  0.18103367  0.64287358    -0.26560
N662        N  0.40428403  0.13091046  0.63297360     0.00450
H663        H  0.38571991  0.10633661  0.67882633     0.06340
H664        H  0.45104040  0.15476998  0.61321081     0.06370
N665        N  0.38952388  0.23052897  0.64452637    -0.26610
N666        N  0.38403749  0.17527642  0.57858564    -0.26220
N667        N  0.36139417  0.16018545  0.67554394     0.00810
C668        C  0.32090176  0.25114951  0.60572451     0.42210
C669        C  0.33504964  0.11287856  0.60539921    -0.07480
N670        N  0.42066106  0.17603495  0.61235731    -0.26220
H671        H  0.37801402  0.15318625  0.54947671     0.06360
N672        N  0.31879642  0.23718438  0.62407382    -0.47450
H673        H  0.32074665  0.10659783  0.61534607     0.06340
C674        C  0.41886790  0.10617798  0.65740451     0.42040
C675        C  0.30042518  0.18565394  0.63618676    -0.06970
Co676      Co  0.35613574  0.14328296  0.64524861     0.73820
N677        N  0.36093235  0.11950609  0.57731766    -0.47160
C678        C  0.39369326  0.25299760  0.67576589     0.42310
N679        N  0.36805719  0.15004427  0.69453522    -0.47150
Co680      Co  0.39474784  0.15303518  0.60444527     0.73890
C681        C  0.44296828  0.17142634  0.61488638    -0.07480
C682        C  0.34396141  0.24651835  0.59605412    -0.07040
N683        N  0.35746962  0.18223744  0.67844460    -0.26570
N684        N  0.37226221  0.20794248  0.56344716    -0.47330
H685        H  0.41607620  0.25659082  0.64302849     0.06320
C686        C  0.39564166  0.11257484  0.66440033    -0.07460
Cl687      Cl  0.37121064  0.17848134  0.62851120    -0.50460
C688        C  0.34096905  0.10780546  0.58141162     0.42070
H689        H  0.35927550  0.20441405  0.70804872     0.06280
N690        N  0.42315882  0.11827553  0.63757788    -0.47170
C691        C  0.10511916  0.34287735  0.58288066     0.41920
N692        N  0.12515345  0.35540881  0.61214630     0.00810
C693        C  0.21331669  0.43380747  0.62184023    -0.07060
H694        H  0.22807011  0.36579031  0.56357974     0.06310
C695        C  0.23253953  0.31504791  0.62887418    -0.07410
Co696      Co  0.15518549  0.39597570  0.60345493     0.74180
N697        N  0.19986235  0.37842379  0.58384398    -0.26590
Co698      Co  0.21526482  0.38285004  0.61505318     0.74070
C699        C  0.24806932  0.31834398  0.60931896     0.42030
N700        N  0.17507744  0.32326190  0.64887072     0.00430
N701        N  0.22789317  0.34901188  0.61459526     0.00540
N702        N  0.17567636  0.44234475  0.61463313    -0.47440
H703        H  0.12065736  0.37114966  0.55952964     0.06290
N704        N  0.17791375  0.38290868  0.57926927     0.00820
N705        N  0.23003239  0.38666805  0.64805632     0.00560
C706        C  0.25149046  0.39372401  0.67762890     0.42170
N707        N  0.15357333  0.32846295  0.64364519    -0.26050
C708        C  0.12030730  0.42755942  0.63535468    -0.06970
N709        N  0.10998951  0.33958194  0.60554256    -0.47150
N710        N  0.24744595  0.39973013  0.65531609    -0.47380
C711        C  0.10647473  0.42255091  0.65678713     0.41940
N712        N  0.17986090  0.42032658  0.61191760     0.00810
N713        N  0.15577566  0.36565904  0.67638588    -0.26070
N714        N  0.13096026  0.36946755  0.59545241    -0.26560
N715        N  0.17767481  0.36122207  0.68047021     0.00450
H716        H  0.12940522  0.38121998  0.69667658     0.06340
H717        H  0.23452925  0.36496162  0.69851621     0.06370
N718        N  0.20178016  0.41508750  0.61605602    -0.26610
N719        N  0.22097193  0.33493174  0.63085697    -0.26220
N720        N  0.12699635  0.39299032  0.64593013     0.00810
C721        C  0.19197674  0.37018499  0.54814938     0.42210
C722        C  0.14186359  0.30960317  0.63956421    -0.07480
N723        N  0.22318062  0.37221136  0.66393022    -0.26220
H724        H  0.23157542  0.30077176  0.64072827     0.06360
N725        N  0.17252479  0.37832218  0.55773902    -0.47450
H726        H  0.12347071  0.30856144  0.63662948     0.06340
C727        C  0.16617193  0.37779509  0.71122456     0.42040
C728        C  0.11928200  0.36300378  0.57619942    -0.06970
Co729      Co  0.14010161  0.36016476  0.64492317     0.73820
N730        N  0.17858799  0.30107819  0.65014044    -0.47160
C731        C  0.19604633  0.45139254  0.62083956     0.42310
N732        N  0.11230212  0.40068612  0.66142249    -0.47150
Co733      Co  0.19904690  0.34735058  0.65648325     0.73890
C734        C  0.23560147  0.37528059  0.68308845    -0.07480
C735        C  0.21004394  0.37033390  0.56515095    -0.07040
N736        N  0.13228702  0.40807899  0.63012712    -0.26570
N737        N  0.24444645  0.34001286  0.60157275    -0.47330
H738        H  0.23138527  0.43475583  0.62642234     0.06320
C739        C  0.14710746  0.37599022  0.69479901    -0.07460
Cl740      Cl  0.17740771  0.37164531  0.62986966    -0.50460
C741        C  0.15821184  0.29181884  0.64460456     0.42070
H742        H  0.12107041  0.44291200  0.62506993     0.06280
N743        N  0.18449355  0.36819650  0.70089805    -0.47170
C744        C  0.36485325  0.29145283  0.83384406     0.41920
N745        N  0.35896977  0.32690366  0.83756399     0.00810
C746        C  0.34653455  0.40491072  0.75058581    -0.07060
H747        H  0.41740790  0.35546186  0.74282239     0.06310
C748        C  0.44211519  0.38050253  0.82900880    -0.07410
Co749      Co  0.34644045  0.34850657  0.79362100     0.74180
N750        N  0.38995957  0.35477502  0.76806786    -0.26590
Co751      Co  0.38699926  0.38735476  0.78397031     0.74070
C752        C  0.45233512  0.37430777  0.80717888     0.42030
N753        N  0.40200213  0.36682271  0.86845734     0.00430
N754        N  0.41761177  0.38296155  0.80105606     0.00540
N755        N  0.32023798  0.37763101  0.75886755    -0.47440
H756        H  0.35419203  0.29218450  0.79548302     0.06290
N757        N  0.37401966  0.33941886  0.77260862     0.00820
N758        N  0.38286308  0.41819285  0.80034035     0.00560
C759        C  0.37280992  0.45254046  0.80575835     0.42170
N760        N  0.38513210  0.35208552  0.87080285    -0.26050
C761        C  0.29836394  0.36228324  0.80861033    -0.06970
N762        N  0.36629653  0.30877817  0.84856580    -0.47150
N763        N  0.37509693  0.43648766  0.78956264    -0.47380
C764        C  0.28748777  0.36817955  0.83016657     0.41940
N765        N  0.33905363  0.37536277  0.77160896     0.00810
N766        N  0.35007454  0.38852019  0.87013278    -0.26070
N767        N  0.35434152  0.32284786  0.81580362    -0.26560
N768        N  0.36570345  0.40453324  0.86742849     0.00450
H769        H  0.31929102  0.38592941  0.89059298     0.06340
H770        H  0.38029350  0.45080719  0.84461272     0.06370
N771        N  0.35480021  0.39091515  0.76727870    -0.26610
N772        N  0.42042781  0.38566847  0.82358095    -0.26220
N773        N  0.32321407  0.36232886  0.83645918     0.00810
C774        C  0.39422397  0.32339095  0.74592776     0.42210
C775        C  0.39168360  0.33527770  0.88523894    -0.07480
N776        N  0.38578433  0.42145575  0.82278454    -0.26220
H777        H  0.44977803  0.38132244  0.84599484     0.06360
N778        N  0.37575650  0.32070639  0.75977141    -0.47450
H779        H  0.38114685  0.32077260  0.88989906     0.06340
C780        C  0.34035357  0.41932740  0.89097483     0.42040
C781        C  0.35724635  0.30062849  0.81176320    -0.06970
Co782      Co  0.35382515  0.35707870  0.85379440     0.73820
N783        N  0.42041643  0.36079785  0.88128876    -0.47160
C784        C  0.32332651  0.39602980  0.74521473     0.42310
N785        N  0.30395828  0.36839148  0.84650260    -0.47150
Co786      Co  0.39439938  0.39544956  0.84576581     0.73890
C787        C  0.38013088  0.44305881  0.82770815    -0.07480
C788        C  0.40362161  0.34629114  0.75124610    -0.07040
N789        N  0.32031656  0.35852085  0.81430521    -0.26570
N790        N  0.43656169  0.37650514  0.79053664    -0.47330
H791        H  0.35588444  0.41877951  0.74255717     0.06320
C792        C  0.33387815  0.39588283  0.88480686    -0.07460
Cl793      Cl  0.37052019  0.37221432  0.81929250    -0.50460
C794        C  0.41513300  0.34079148  0.89273152     0.42070
H795        H  0.29070948  0.35953118  0.79183507     0.06280
N796        N  0.36060114  0.42343870  0.87956009    -0.47170
C797        C  0.15796647  0.39313937  0.91677977     0.41920
N798        N  0.14616276  0.37354479  0.88724228     0.00810
C799        C  0.06725638  0.28614972  0.87576874    -0.07060
H800        H  0.13770293  0.27176897  0.93518805     0.06310
C801        C  0.18634150  0.26569300  0.87007511    -0.07410
Co802      Co  0.10546990  0.34348354  0.89493207     0.74180
N803        N  0.12299805  0.29904054  0.91484275    -0.26590
Co804      Co  0.11856194  0.28390281  0.88342569     0.74070
C805        C  0.18279151  0.25016022  0.88948742     0.42030
N806        N  0.17965827  0.32350332  0.85287099     0.00430
N807        N  0.15234612  0.27087173  0.88431784     0.00540
N808        N  0.05883088  0.32354152  0.88283662    -0.47440
H809        H  0.12949356  0.37728425  0.93959184     0.06290
N810        N  0.11829943  0.32083066  0.91918881     0.00820
N811        N  0.11503796  0.26969846  0.85022086     0.00560
C812        C  0.10839017  0.24744218  0.82124575     0.42170
N813        N  0.17447778  0.34507940  0.85694087    -0.26050
C814        C  0.07449554  0.37878751  0.86345756    -0.06970
N815        N  0.16163330  0.38891266  0.89418436    -0.47150
N816        N  0.10245073  0.25186767  0.84340218    -0.47380
C817        C  0.07942205  0.39249644  0.84206036     0.41940
N818        N  0.08095275  0.31925103  0.88583212     0.00810
N819        N  0.13795656  0.34398091  0.82303570    -0.26070
N820        N  0.13190625  0.36735479  0.90363878    -0.26560
N821        N  0.14246683  0.32243134  0.81818552     0.00450
H822        H  0.12574346  0.37219745  0.80313198     0.06340
H823        H  0.13732416  0.26423748  0.80017361     0.06370
N824        N  0.08613943  0.29746283  0.88184491    -0.26610
N825        N  0.16661751  0.27763015  0.86816091    -0.26220
N826        N  0.10907229  0.37164334  0.85246814     0.00810
C827        C  0.13309353  0.30782136  0.94998286     0.42210
C828        C  0.19250594  0.35533275  0.86617516    -0.07480
N829        N  0.12955576  0.27654697  0.83428884    -0.26220
H830        H  0.20066313  0.26648080  0.85823997     0.06360
N831        N  0.12389415  0.32667861  0.94032376    -0.47450
H832        H  0.19295157  0.37315128  0.87068100     0.06340
C833        C  0.13045704  0.33698260  0.78647961     0.42040
C834        C  0.13799725  0.37872186  0.92311949    -0.06970
Co835      Co  0.14239709  0.35883556  0.85437510     0.73820
N836        N  0.20090630  0.31839204  0.85928432    -0.47160
C837        C  0.04969689  0.30349109  0.87613213     0.42310
N838        N  0.10130161  0.38648138  0.83705999    -0.47150
Co839      Co  0.15513777  0.30019411  0.84267731     0.73890
C840        C  0.12663369  0.26367340  0.81538165    -0.07480
C841        C  0.13224920  0.28943354  0.93347359    -0.07040
N842        N  0.09389989  0.36645702  0.86828869    -0.26570
N843        N  0.16106679  0.25402585  0.89720779    -0.47330
H844        H  0.06616089  0.26815112  0.87147843     0.06320
C845        C  0.12968591  0.35414845  0.80446378    -0.07460
Cl846      Cl  0.13028303  0.32157962  0.86888016    -0.50460
C847        C  0.20997934  0.33762356  0.86845112     0.42070
H848        H  0.05941266  0.37860272  0.87422284     0.06280
N849        N  0.13805515  0.31746128  0.79644882    -0.47170
C850        C  0.20688253  0.13439166  0.67243293     0.41920
N851        N  0.17180089  0.14115607  0.66436867     0.00810
C852        C  0.09268290  0.14977763  0.75193635    -0.07060
H853        H  0.14448101  0.08058414  0.75851462     0.06310
C854        C  0.12481163  0.05771994  0.67102264    -0.07410
Co855      Co  0.14750079  0.15157702  0.70776089     0.74180
N856        N  0.14353664  0.10861899  0.73400906    -0.26590
Co857      Co  0.11139840  0.11007241  0.71736399     0.74070
C858        C  0.13512312  0.04852767  0.69207285     0.42030
N859        N  0.13256481  0.09655965  0.63203723     0.00430
N860        N  0.11857817  0.08031787  0.69962578     0.00540
N861        N  0.11802702  0.17707606  0.74159402    -0.47440
H862        H  0.20196865  0.14059281  0.71072989     0.06290
N863        N  0.15783782  0.12548596  0.72993010     0.00820
N864        N  0.08056448  0.11248865  0.70034551     0.00560
C865        C  0.04600672  0.12144108  0.69452119     0.42170
N866        N  0.14742779  0.11336535  0.62987372    -0.26050
C867        C  0.13005910  0.19770682  0.69123606    -0.06970
N868        N  0.19163712  0.13577450  0.65495433    -0.47150
N869        N  0.06175274  0.11897296  0.71106951    -0.47380
C870        C  0.12244038  0.20745728  0.66958237     0.41940
N871        N  0.12014628  0.15851073  0.72880769     0.00810
N872        N  0.10925649  0.14695996  0.62981629    -0.26070
N873        N  0.17371191  0.14368542  0.68682841    -0.26560
N874        N  0.09339774  0.13122803  0.63271772     0.00450
H875        H  0.11049109  0.17861303  0.61046329     0.06340
H876        H  0.04813139  0.11532907  0.65559555     0.06370
N877        N  0.10576078  0.14205886  0.73421273    -0.26610
N878        N  0.11555830  0.07765942  0.67711077    -0.26220
N879        N  0.13258490  0.17311766  0.66396102     0.00810
C880        C  0.17505033  0.10585128  0.75630544     0.42210
C881        C  0.16419362  0.10709784  0.61519722    -0.07480
N882        N  0.07761678  0.11018065  0.67773566    -0.26220
H883        H  0.12506009  0.05113481  0.65367883     0.06360
N884        N  0.17667108  0.12469342  0.74291678    -0.47450
H885        H  0.17843724  0.11773445  0.60980465     0.06340
C886        C  0.07763725  0.15682435  0.60988207     0.42040
C887        C  0.19511184  0.13911964  0.69348183    -0.06970
Co888      Co  0.14088569  0.14408813  0.64679971     0.73820
N889        N  0.13834890  0.07843103  0.61909967    -0.47160
C890        C  0.10075129  0.17349441  0.75648338     0.42310
N891        N  0.12320401  0.19092004  0.65378123    -0.47150
Co892      Co  0.10379713  0.10296432  0.65460041     0.73890
C893        C  0.05581762  0.11522447  0.67258649    -0.07480
C894        C  0.15277135  0.09516065  0.75061102    -0.07040
N895        N  0.13645439  0.17652645  0.68599515    -0.26570
N896        N  0.12997512  0.06314773  0.70908368    -0.47330
H897        H  0.08042880  0.13965404  0.76153495     0.06320
C898        C  0.10114770  0.16348979  0.61575522    -0.07460
Cl899      Cl  0.12571283  0.12684997  0.68162403    -0.50460
C900        C  0.15834375  0.08382740  0.60789473     0.42070
H901        H  0.13152766  0.20568628  0.70796845     0.06280
N902        N  0.07402687  0.13632183  0.62096960    -0.47170
C903        C  0.33861716  0.20514745  0.86509355     0.41920
N904        N  0.34357354  0.17026537  0.85719275     0.00810
C905        C  0.25308138  0.09507260  0.84775833    -0.07060
H906        H  0.24687288  0.14761339  0.91525002     0.06310
C907        C  0.33121624  0.12270041  0.94298298    -0.07410
Co908      Co  0.29894726  0.14885859  0.84484921     0.74180
N909        N  0.27201097  0.14605014  0.88779653    -0.26590
Co910      Co  0.28709719  0.11337964  0.88727904     0.74070
C911        C  0.30941377  0.13116896  0.95196306     0.42030
N912        N  0.37245611  0.13120828  0.90287403     0.00430
N913        N  0.30390941  0.11957160  0.91786429     0.00540
N914        N  0.26310216  0.11992521  0.81971515    -0.47440
H915        H  0.30018146  0.20415152  0.85596520     0.06290
N916        N  0.27694234  0.16013443  0.87088254     0.00820
N917        N  0.30257718  0.08189497  0.88594025     0.00560
C918        C  0.30733347  0.04713688  0.87820649     0.42170
N919        N  0.37582373  0.14519566  0.88553929    -0.26050
C920        C  0.31572071  0.13075737  0.79839458    -0.06970
N921        N  0.35437283  0.18846153  0.86468000    -0.47150
N922        N  0.29126375  0.06343450  0.87962250    -0.47380
C923        C  0.33752831  0.12278799  0.78842348     0.41940
N924        N  0.27626849  0.12231092  0.83821943     0.00810
N925        N  0.37429192  0.10743695  0.85233141    -0.26070
N926        N  0.32153792  0.17407525  0.85304759    -0.26560
N927        N  0.37059843  0.09210388  0.86845847     0.00450
H928        H  0.39472261  0.10793904  0.82155507     0.06340
H929        H  0.34621587  0.04802746  0.88546455     0.06370
N930        N  0.27084586  0.10822556  0.85501269    -0.26610
N931        N  0.32627060  0.11596598  0.92156781    -0.26220
N932        N  0.34292667  0.13337040  0.82344977     0.00810
C933        C  0.25052993  0.17790791  0.88987015     0.42210
C934        C  0.39123911  0.16124284  0.89165997    -0.07480
N935        N  0.32500339  0.07819297  0.88909866    -0.26220
H936        H  0.34797164  0.12186647  0.95119113     0.06360
N937        N  0.26444097  0.17921852  0.87129324    -0.47450
H938        H  0.39713021  0.17495165  0.88063609     0.06340
C939        C  0.39310577  0.07539536  0.84348577     0.42040
C940        C  0.31679427  0.19583739  0.85766313    -0.06970
Co941      Co  0.35929266  0.13947281  0.85418768     0.73820
N942        N  0.38536972  0.13691081  0.92119463    -0.47160
C943        C  0.24805801  0.10286668  0.82403860     0.42310
N944        N  0.35333858  0.12495784  0.80528223    -0.47150
Co945      Co  0.34885574  0.10355790  0.89641662     0.73890
C946        C  0.32948465  0.05625066  0.88483385    -0.07480
C947        C  0.25538722  0.15567278  0.90083332    -0.07040
N948        N  0.32082493  0.13701025  0.81983465    -0.26570
N949        N  0.29326549  0.12845140  0.93573182    -0.47330
H950        H  0.24390047  0.08277534  0.85819688     0.06320
C951        C  0.38835870  0.09878459  0.83632749    -0.07460
Cl952      Cl  0.32348221  0.12604209  0.87082170    -0.50460
C953        C  0.39805653  0.15588597  0.91538326     0.42070
H954        H  0.29870076  0.13207436  0.79103735     0.06280
N955        N  0.38161491  0.07234375  0.86388846    -0.47170
C956        C  0.57906238  0.89076921  0.65717319     0.41920
N957        N  0.60880578  0.87187392  0.64430784     0.00810
C958        C  0.62210888  0.78607744  0.56385166    -0.07060
H959        H  0.56141867  0.77006177  0.63256525     0.06310
C960        C  0.62732364  0.76519993  0.68319200    -0.07410
Co961      Co  0.60166585  0.84263142  0.60275836     0.74180
N962        N  0.58184793  0.79775030  0.61905449    -0.26590
Co963      Co  0.61370715  0.78292699  0.61509601     0.74070
C964        C  0.60809211  0.74947592  0.67965619     0.42030
N965        N  0.64548513  0.82225468  0.67665570     0.00430
N966        N  0.61303714  0.76983873  0.64900309     0.00540
N967        N  0.61491556  0.82361541  0.55616914    -0.47440
H968        H  0.55622815  0.87580210  0.62791942     0.06290
N969        N  0.57730334  0.81958092  0.61451781     0.00820
N970        N  0.64717954  0.76899006  0.61177834     0.00560
C971        C  0.67724252  0.74826502  0.60481959     0.42170
N972        N  0.63928101  0.84342786  0.67176334    -0.26050
C973        C  0.63433790  0.87686274  0.57208474    -0.06970
N974        N  0.60178654  0.88644118  0.66043206    -0.47150
N975        N  0.65486023  0.75187393  0.59863401    -0.47380
C976        C  0.65535445  0.89041560  0.57769295     0.41940
N977        N  0.61127935  0.81879007  0.57800523     0.00810
N978        N  0.67381623  0.84339396  0.63573652    -0.26070
N979        N  0.59240593  0.86602938  0.62980567    -0.26560
N980        N  0.67841285  0.82161168  0.63943598     0.00450
H981        H  0.69362236  0.87103957  0.62239725     0.06340
H982        H  0.69763624  0.76531578  0.63406647     0.06370
N983        N  0.61537769  0.79690373  0.58280553    -0.26610
N984        N  0.62914425  0.77685391  0.66336466    -0.26220
N985        N  0.64375539  0.87168126  0.60758509     0.00810
C986        C  0.54629043  0.80610509  0.62798135     0.42210
C987        C  0.63178196  0.85354216  0.69058692    -0.07480
N988        N  0.66287326  0.77607871  0.62649806    -0.26220
H989        H  0.63911976  0.76630796  0.69761955     0.06360
N990        N  0.55587804  0.82517157  0.61937960    -0.47450
H991        H  0.62692730  0.87135106  0.69224711     0.06340
C992        C  0.70927299  0.83473834  0.62434319     0.42040
C993        C  0.57278140  0.87704342  0.63646877    -0.06970
Co994      Co  0.64184474  0.85791001  0.64035565     0.73820
N995        N  0.64432599  0.81769575  0.69876603    -0.47160
C996        C  0.62213135  0.80386332  0.54674610     0.42310
N997        N  0.65963395  0.88617925  0.60007608    -0.47150
Co998      Co  0.65452672  0.79935962  0.65199021     0.73890
C999        C  0.68233025  0.76413557  0.62345885    -0.07480
C1000       C  0.56302466  0.78780088  0.62740456    -0.07040
N1001       N  0.62850102  0.86577815  0.59187024    -0.26570
N1002       N  0.60037708  0.75295015  0.65779383    -0.47330
H1003       H  0.62685592  0.76819162  0.56248633     0.06320
C1004       C  0.69227712  0.85310222  0.62655387    -0.07460
Cl1005     Cl  0.62784887  0.82067756  0.62744230    -0.50460
C1006       C  0.63613928  0.83694861  0.70830730     0.42070
H1007       H  0.62516846  0.87570346  0.55588094     0.06280
N1008       N  0.69934325  0.81581253  0.63299675    -0.47170
C1009       C  0.88893988  0.65505042  0.57426096     0.41920
N1010       N  0.87023322  0.64506407  0.60478710     0.00810
C1011       C  0.78537302  0.56529048  0.62637174    -0.07060
H1012       H  0.76614129  0.62967600  0.56269866     0.06310
C1013       C  0.76298930  0.68354043  0.62411241    -0.07410
Co1014     Co  0.84121635  0.60289626  0.60169265     0.74180
N1015       N  0.79508702  0.61753993  0.58261167    -0.26590
Co1016     Co  0.78154288  0.61546601  0.61473078     0.74070
C1017       C  0.74675101  0.67887795  0.60554166     0.42030
N1018       N  0.82070282  0.67940322  0.63869197     0.00430
N1019       N  0.76754211  0.64878619  0.61193029     0.00540
N1020       N  0.82276450  0.55713715  0.61839895    -0.47440
H1021       H  0.87422603  0.62393913  0.55420252     0.06290
N1022       N  0.81694042  0.61317836  0.57762811     0.00820
N1023       N  0.76930986  0.61417442  0.64857306     0.00560
C1024       C  0.74999902  0.60789765  0.67945980     0.42170
N1025       N  0.84244325  0.67501671  0.63389392    -0.26050
C1026       C  0.87678842  0.57459142  0.63499309    -0.06970
N1027       N  0.88464336  0.66058825  0.59637937    -0.47150
N1028       N  0.75291486  0.60096571  0.65740671    -0.47380
C1029       C  0.89137494  0.58116895  0.65513483     0.41940
N1030       N  0.81782991  0.57872808  0.61377612     0.00810
N1031       N  0.84448012  0.64114896  0.67000823    -0.26070
N1032       N  0.86437643  0.62912355  0.58990754    -0.26560
N1033       N  0.82298157  0.64601825  0.67543028     0.00450
H1034       H  0.87401833  0.63070670  0.68980955     0.06340
H1035       H  0.76718635  0.63828740  0.69800597     0.06370
N1036       N  0.79599021  0.58372875  0.61824551    -0.26610
N1037       N  0.77491131  0.66406621  0.62679381    -0.26220
N1038       N  0.87191364  0.61054879  0.64211563     0.00810
C1039       C  0.80178973  0.62498163  0.54668024     0.42210
C1040       C  0.85215748  0.69415589  0.62654771    -0.07480
N1041       N  0.77672243  0.62976813  0.66314676    -0.26220
H1042       H  0.76460652  0.69866902  0.63474507     0.06360
N1043       N  0.82161132  0.61728360  0.55591766    -0.47450
H1044       H  0.87024379  0.69612447  0.62252813     0.06340
C1045       C  0.83908735  0.63676625  0.70652650     0.42040
C1046       C  0.87542385  0.63389084  0.56985560    -0.06970
Co1047     Co  0.85758286  0.64342151  0.63805006     0.73820
N1048       N  0.81501794  0.70099738  0.63527958    -0.47160
C1049       C  0.80318211  0.54817094  0.62681971     0.42310
N1050       N  0.88705196  0.60380752  0.65801410    -0.47150
Co1051     Co  0.79899044  0.65528055  0.65155429     0.73890
C1052       C  0.76566481  0.62713773  0.68321553    -0.07480
C1053       C  0.78413300  0.62486418  0.56390887    -0.07040
N1054       N  0.86544246  0.59394838  0.62826327    -0.26570
N1055       N  0.75020328  0.65673768  0.59901474    -0.47330
H1056       H  0.76747937  0.56416623  0.63140902     0.06320
C1057       C  0.85581051  0.63454376  0.68860988    -0.07460
Cl1058     Cl  0.81982959  0.62915280  0.62646581    -0.50460
C1059       C  0.83425706  0.71161065  0.62839317     0.42070
H1060       H  0.87529272  0.55806501  0.62672025     0.06280
N1061       N  0.81905250  0.64407799  0.69758504    -0.47170
C1062       C  0.65547105  0.57493443  0.89038389     0.41920
N1063       N  0.64391466  0.60501618  0.87188081     0.00810
C1064       C  0.56598532  0.62568138  0.78487593    -0.07060
H1065       H  0.63229297  0.56205775  0.76787341     0.06310
C1066       C  0.68514479  0.62293199  0.76514266    -0.07410
Co1067     Co  0.60278683  0.60089102  0.84176819     0.74180
N1068       N  0.61862708  0.58185594  0.79598328    -0.26590
Co1069     Co  0.61632967  0.61376489  0.78153946     0.74070
C1070       C  0.68066256  0.60454868  0.74876001     0.42030
N1071       N  0.67864023  0.63935025  0.82272347     0.00430
N1072       N  0.65004496  0.61101358  0.76860458     0.00540
N1073       N  0.55747518  0.61786737  0.82216834    -0.47440
H1074       H  0.62570292  0.55345544  0.87458743     0.06290
N1075       N  0.61382750  0.57693516  0.81776207     0.00820
N1076       N  0.61485280  0.64734621  0.76811639     0.00560
C1077       C  0.60957659  0.67808357  0.74801035     0.42170
N1078       N  0.67326724  0.63276583  0.84366857    -0.26050
C1079       C  0.57374032  0.63329727  0.87802398    -0.06970
N1080       N  0.65959431  0.59732969  0.88670611    -0.47150
N1081       N  0.60227435  0.65613184  0.75095176    -0.47380
C1082       C  0.58014019  0.65382358  0.89225567     0.41940
N1083       N  0.57908662  0.61282578  0.81751996     0.00810
N1084       N  0.63904284  0.66954807  0.84376447    -0.26070
N1085       N  0.62891316  0.58948323  0.86543780    -0.26560
N1086       N  0.64371956  0.67429073  0.82209595     0.00450
H1087       H  0.62580039  0.69013349  0.87145760     0.06340
H1088       H  0.63965739  0.69629257  0.76616612     0.06370
N1089       N  0.58432695  0.61722657  0.79570673    -0.26610
N1090       N  0.66525323  0.62574817  0.77639477    -0.26220
N1091       N  0.60913773  0.64175217  0.87175852     0.00810
C1092       C  0.62713241  0.54629489  0.80349462     0.42210
C1093       C  0.69186670  0.62402381  0.85371374    -0.07480
N1094       N  0.63037581  0.66179945  0.77580218    -0.26220
H1095       H  0.70027819  0.63358726  0.76697022     0.06360
N1096       N  0.61841990  0.55541854  0.82281374    -0.47450
H1097       H  0.69314842  0.61811588  0.87127622     0.06340
C1098       C  0.63071663  0.70517738  0.83557953     0.42040
C1099       C  0.63471085  0.56957405  0.87628521    -0.06970
Co1100     Co  0.64179789  0.63764566  0.85806840     0.73820
N1101       N  0.70081630  0.63782490  0.81879686    -0.47160
C1102       C  0.54875659  0.62637871  0.80248233     0.42310
N1103       N  0.60250786  0.65734546  0.88700099    -0.47150
Co1104     Co  0.65500094  0.65075765  0.79941758     0.73890
C1105       C  0.62837659  0.68166812  0.76433986    -0.07480
C1106       C  0.62684205  0.56329149  0.78560867    -0.07040
N1107       N  0.59287051  0.62731875  0.86587147    -0.26570
N1108       N  0.65830737  0.59823755  0.75151653    -0.47330
H1109       H  0.56505595  0.63092004  0.76703419     0.06320
C1110       C  0.63061781  0.68823244  0.85362495    -0.07460
Cl1111     Cl  0.62869749  0.62561488  0.82008943    -0.50460
C1112       C  0.71027062  0.62963389  0.83829048     0.42070
H1113       H  0.55767210  0.62398518  0.87753465     0.06280
N1114       N  0.63918806  0.69562416  0.81651710    -0.47170
C1115       C  0.91900634  0.84147108  0.60896886     0.41920
N1116       N  0.88944972  0.85279182  0.62872018     0.00810
C1117       C  0.87369472  0.93423470  0.71402618    -0.07060
H1118       H  0.93564164  0.86956968  0.73298396     0.06310
C1119       C  0.87308348  0.81536015  0.73653925    -0.07410
Co1120     Co  0.89531115  0.89474345  0.65796162     0.74180
N1121       N  0.91533788  0.88060122  0.70384121    -0.26590
Co1122     Co  0.88303400  0.88323024  0.71778296     0.74070
C1123       C  0.89179007  0.82012428  0.75260666     0.42030
N1124       N  0.85636131  0.81941562  0.67896548     0.00430
N1125       N  0.88556583  0.84989468  0.73147482     0.00540
N1126       N  0.88166273  0.94170216  0.67654835    -0.47440
H1127       H  0.94117161  0.87101502  0.62399813     0.06290
N1128       N  0.92023016  0.88461950  0.68191911     0.00820
N1129       N  0.84919413  0.88499707  0.73114112     0.00560
C1130       C  0.81879190  0.89037720  0.75185098     0.42170
N1131       N  0.86036504  0.82382505  0.65715739    -0.26050
C1132       C  0.86234768  0.92336510  0.62238449    -0.06970
N1133       N  0.89662950  0.83730578  0.61356799    -0.47150
N1134       N  0.84071415  0.89777871  0.74818124    -0.47380
C1135       C  0.84190328  0.91707581  0.60826599     0.41940
N1136       N  0.88457398  0.91977428  0.68137382     0.00810
N1137       N  0.82462272  0.85875090  0.65695306    -0.26070
N1138       N  0.90540725  0.86769837  0.63466510    -0.26560
N1139       N  0.82000090  0.85435444  0.67866883     0.00450
H1140       H  0.80385987  0.87023186  0.62863933     0.06340
H1141       H  0.80019896  0.86002387  0.73484905     0.06370
N1142       N  0.88010570  0.91514639  0.70327259    -0.26610
N1143       N  0.87045776  0.83468072  0.72439342    -0.26220
N1144       N  0.85336777  0.88806072  0.62851120     0.00810
C1145       C  0.95171705  0.87412062  0.69736192     0.42210
C1146       C  0.86943164  0.80535827  0.64748327    -0.07480
N1147       N  0.83448628  0.86932755  0.72414484    -0.26220
H1148       H  0.86195137  0.80054796  0.73562752     0.06360
N1149       N  0.94222711  0.88112329  0.67737302    -0.47450
H1150       H  0.87386392  0.80393148  0.62953586     0.06340
C1151       C  0.78804194  0.86509925  0.66429166     0.42040
C1152       C  0.92496827  0.86192078  0.62308664    -0.06970
Co1153     Co  0.85645791  0.85541869  0.64255645     0.73820
N1154       N  0.86245087  0.79843685  0.68482972    -0.47160
C1155       C  0.87454332  0.95144970  0.69628635     0.42310
N1156       N  0.83773473  0.89489819  0.61319409    -0.47150
Co1157     Co  0.84481097  0.84392455  0.70135271     0.73890
C1158       C  0.81483653  0.87142344  0.73600438    -0.07480
C1159       C  0.93432396  0.87395690  0.71493140    -0.07040
N1160       N  0.86823238  0.90410807  0.63428082    -0.26570
N1161       N  0.89836834  0.84214455  0.74892109    -0.47330
H1162       H  0.86938444  0.93579030  0.73205693     0.06320
C1163       C  0.80563089  0.86617098  0.64672568    -0.07460
Cl1164     Cl  0.86999382  0.86946748  0.67991577    -0.50460
C1165       C  0.87123585  0.78847525  0.66588938     0.42070
H1166       H  0.87134589  0.93956025  0.62314397     0.06280
N1167       N  0.79816389  0.85789903  0.68383985    -0.47170
C1168       C  0.84316505  0.61190418  0.92503227     0.41920
N1169       N  0.85528731  0.63047460  0.89519920     0.00810
C1170       C  0.93726258  0.71454007  0.87938985    -0.07060
H1171       H  0.86509104  0.73329408  0.93622703     0.06310
C1172       C  0.81857471  0.73761782  0.87084291    -0.07410
Co1173     Co  0.89766017  0.65912138  0.90115098     0.74180
N1174       N  0.88100470  0.70506872  0.91842841    -0.26590
Co1175     Co  0.88597312  0.71859410  0.88637183     0.74070
C1176       C  0.82182760  0.75404435  0.88944814     0.42030
N1177       N  0.82418544  0.67993764  0.85804162     0.00430
N1178       N  0.85238449  0.73293762  0.88610934     0.00540
N1179       N  0.94502704  0.67754248  0.88882366    -0.47440
H1180       H  0.87326290  0.62628878  0.94710297     0.06290
N1181       N  0.88537299  0.68346520  0.92417953     0.00820
N1182       N  0.88980734  0.73056844  0.85231128     0.00560
C1183       C  0.89628692  0.75054147  0.82172266     0.42170
N1184       N  0.82792013  0.65845338  0.86396477    -0.26050
C1185       C  0.92792657  0.62363224  0.86855804    -0.06970
N1186       N  0.83912292  0.61616264  0.90253986    -0.47150
N1187       N  0.90216778  0.74800525  0.84427080    -0.47380
C1188       C  0.92147233  0.60930085  0.84822051     0.41940
N1189       N  0.92292377  0.68237963  0.89128301     0.00810
N1190       N  0.86479553  0.65567406  0.83015592    -0.26070
N1191       N  0.87038815  0.63617840  0.91110279    -0.26560
N1192       N  0.85987440  0.67681096  0.82398739     0.00450
H1193       H  0.87843800  0.62683888  0.81159667     0.06340
H1194       H  0.86737650  0.73226226  0.80191598     0.06370
N1195       N  0.91814111  0.70399860  0.88594761    -0.26610
N1196       N  0.83824382  0.72552452  0.87008028    -0.26220
N1197       N  0.89194062  0.62820902  0.86073263     0.00810
C1198       C  0.86891575  0.69813113  0.95319608     0.42210
C1199       C  0.80843119  0.64980458  0.87193892    -0.07480
N1200       N  0.87535808  0.72257570  0.83679883    -0.26220
H1201       H  0.80420405  0.73591851  0.85904083     0.06360
N1202       N  0.87865163  0.67877062  0.94526838    -0.47450
H1203       H  0.80569078  0.63229360  0.87733821     0.06340
C1204       C  0.87109520  0.66042464  0.79358137     0.42040
C1205       C  0.86425288  0.62518522  0.93080614    -0.06970
Co1206     Co  0.85946071  0.64289835  0.86211289     0.73820
N1207       N  0.80278082  0.68652670  0.86110091    -0.47160
C1208       C  0.95476406  0.69714680  0.88151045     0.42310
N1209       N  0.89885686  0.61317468  0.84510263    -0.47150
Co1210     Co  0.84902568  0.70095874  0.84665460     0.73890
C1211       C  0.87834146  0.73375351  0.81695016    -0.07480
C1212       C  0.87082400  0.71564714  0.93589275    -0.07040
N1213       N  0.90827522  0.63481811  0.87502202    -0.26570
N1214       N  0.84345776  0.75041747  0.89798662    -0.47330
H1215       H  0.93852416  0.73210329  0.87355791     0.06320
C1216       C  0.87360335  0.64467467  0.81230334    -0.07460
Cl1217     Cl  0.87321261  0.68042291  0.87414007    -0.50460
C1218       C  0.79188980  0.66827042  0.86954798     0.42070
H1219       H  0.94459048  0.62528631  0.87680739     0.06280
N1220       N  0.86309110  0.68034833  0.80193541    -0.47170
C1221       C  0.60338361  0.92462445  0.84992420     0.41920
N1222       N  0.62342355  0.89507896  0.86083023     0.00810
C1223       C  0.71297384  0.87424576  0.93604323    -0.07060
H1224       H  0.72850203  0.93692615  0.86825617     0.06310
C1225       C  0.73084773  0.87481494  0.81710522    -0.07410
Co1226     Co  0.65531310  0.89951012  0.90096829     0.74180
N1227       N  0.70062012  0.91798220  0.88345646    -0.26590
Co1228     Co  0.71467278  0.88577050  0.88565577     0.74070
C1229       C  0.74816683  0.89247953  0.82126665     0.42030
N1230       N  0.67169564  0.86191656  0.82466671     0.00430
N1231       N  0.72733189  0.88790749  0.85174149     0.00540
N1232       N  0.67612209  0.88288668  0.94578906    -0.47440
H1233       H  0.62025019  0.94666306  0.87878364     0.06290
N1234       N  0.67909000  0.92340406  0.88903854     0.00820
N1235       N  0.72746069  0.85177517  0.88675404     0.00560
C1236       C  0.74853198  0.82136792  0.89109624     0.42170
N1237       N  0.65026515  0.86698433  0.83023296    -0.26050
C1238       C  0.62194677  0.86567017  0.93192062    -0.06970
N1239       N  0.60783328  0.90237103  0.84571164    -0.47150
N1240       N  0.74539925  0.84327236  0.89843666    -0.47380
C1241       C  0.60787226  0.84499942  0.92609227     0.41940
N1242       N  0.68013992  0.88773053  0.92403343     0.00810
N1243       N  0.65043176  0.83059214  0.86371416    -0.26070
N1244       N  0.63022172  0.91077220  0.87552227    -0.26560
N1245       N  0.67137282  0.82497754  0.85716906     0.00450
H1246       H  0.62118395  0.81150468  0.87469413     0.06340
H1247       H  0.72923239  0.80287596  0.86179909     0.06370
N1248       N  0.70165577  0.88283179  0.91807448    -0.26610
N1249       N  0.71906792  0.87310715  0.83685148    -0.26220
N1250       N  0.62488743  0.85857702  0.89570357     0.00810
C1251       C  0.69346021  0.95364593  0.87499294     0.42210
C1252       C  0.63948680  0.87528686  0.81183929    -0.07480
N1253       N  0.71912590  0.83713420  0.87163142    -0.26220
H1254       H  0.72882537  0.86373179  0.80232080     0.06360
N1255       N  0.67423902  0.94502466  0.88447644    -0.47450
H1256       H  0.62137529  0.87954178  0.81061608     0.06340
C1257       C  0.65425206  0.79357696  0.86340738     0.42040
C1258       C  0.61852021  0.93041536  0.87000887    -0.06970
Co1259     Co  0.63707623  0.86244164  0.86232453     0.73820
N1260       N  0.67611290  0.86583247  0.80293860    -0.47160
C1261       C  0.69592112  0.87387808  0.95383756     0.42310
N1262       N  0.61085746  0.84228529  0.90323005    -0.47150
Co1263     Co  0.69507331  0.84874283  0.84717877     0.73890
C1264       C  0.73108845  0.81741566  0.87318841    -0.07480
C1265       C  0.71098607  0.93618329  0.87452996    -0.07040
N1266       N  0.63185575  0.87275613  0.91185553    -0.26570
N1267       N  0.74523151  0.89955700  0.84338701    -0.47330
H1268       H  0.73075537  0.86860560  0.93635567     0.06320
C1269       C  0.63889379  0.81194398  0.86921790    -0.07460
Cl1270     Cl  0.67560557  0.87412782  0.87419299    -0.50460
C1271       C  0.65639402  0.87367541  0.79378518     0.42070
H1272       H  0.62455359  0.87354584  0.94857068     0.06280
N1273       N  0.67425848  0.80269125  0.85620089    -0.47170
C1274       C  0.33979888  0.89073371  0.57782776     0.41920
N1275       N  0.35004156  0.87032176  0.60756751     0.00810
C1276       C  0.43374681  0.78834926  0.62679098    -0.07060
H1277       H  0.36940376  0.76874266  0.56175496     0.06310
C1278       C  0.31512689  0.76202332  0.62433868    -0.07410
Co1279     Co  0.39340466  0.84292875  0.60339082     0.74180
N1280       N  0.38053826  0.79709321  0.58272846    -0.26590
Co1281     Co  0.38313851  0.78239933  0.61464112     0.74070
C1282       C  0.31987335  0.74616431  0.60575259     0.42030
N1283       N  0.31756054  0.81830921  0.64082950     0.00430
N1284       N  0.34978979  0.76746961  0.61160910     0.00540
N1285       N  0.43988032  0.82607158  0.61983454    -0.47440
H1286       H  0.37110919  0.87670064  0.55720960     0.06290
N1287       N  0.38429482  0.81910787  0.57840546     0.00820
N1288       N  0.38496663  0.76864897  0.64819350     0.00560
C1289       C  0.39019430  0.74715172  0.67809568     0.42170
N1290       N  0.32113240  0.84017649  0.63656370    -0.26050
C1291       C  0.41973459  0.88055045  0.63681226    -0.06970
N1292       N  0.33458602  0.88533676  0.59989883    -0.47150
N1293       N  0.39770786  0.75137113  0.65635254    -0.47380
C1294       C  0.41186224  0.89542185  0.65661517     0.41940
N1295       N  0.41849156  0.82023600  0.61499009     0.00810
N1296       N  0.35696184  0.84127409  0.67183094    -0.26070
N1297       N  0.36604527  0.86534491  0.59237815    -0.26560
N1298       N  0.35183388  0.81985775  0.67673719     0.00450
H1299       H  0.37184194  0.86805762  0.69182574     0.06340
H1300       H  0.35910997  0.76328558  0.69646007     0.06370
N1301       N  0.41458181  0.79814846  0.61879777    -0.26610
N1302       N  0.33441623  0.77420234  0.62674426    -0.26220
N1303       N  0.38447788  0.87237680  0.64426099     0.00810
C1304       C  0.37328985  0.80482787  0.54677157     0.42210
C1305       C  0.30128047  0.84948941  0.63017618    -0.07480
N1306       N  0.36901225  0.77519110  0.66281086    -0.26220
H1307       H  0.30021150  0.76299917  0.63542906     0.06360
N1308       N  0.38035786  0.82436617  0.55670430    -0.47450
H1309       H  0.29845354  0.86759215  0.62748378     0.06340
C1310       C  0.36507887  0.83337805  0.70761464     0.42040
C1311       C  0.36104858  0.87723709  0.57282856    -0.06970
Co1312     Co  0.35253067  0.85626490  0.64049352     0.73820
N1313       N  0.29593438  0.81206386  0.63794726    -0.47160
C1314       C  0.45002465  0.80691430  0.62782938     0.42310
N1315       N  0.38970880  0.88872213  0.65925040    -0.47150
Co1316     Co  0.34276496  0.79712199  0.65221488     0.73890
C1317       C  0.37103510  0.76289063  0.68219047    -0.07480
C1318       C  0.37374569  0.78667208  0.56353423    -0.07040
N1319       N  0.40148694  0.86719659  0.63041673    -0.26570
N1320       N  0.34201792  0.75004000  0.59886794    -0.47330
H1321       H  0.43587491  0.77049802  0.63140210     0.06320
C1322       C  0.36660900  0.85068347  0.69010561    -0.07460
Cl1323     Cl  0.36804087  0.81970046  0.62753648    -0.50460
C1324       C  0.28457082  0.83091972  0.63119764     0.42070
H1325       H  0.43615209  0.88007631  0.62820078     0.06280
N1326       N  0.35588141  0.81450151  0.69837359    -0.47170
C1327       C  0.29162185  0.63065100  0.83201344     0.41920
N1328       N  0.32677414  0.63728965  0.83839990     0.00810
C1329       C  0.40461616  0.65359276  0.75192118    -0.07060
H1330       H  0.35601113  0.58273422  0.74360228     0.06310
C1331       C  0.38127275  0.55596966  0.82739472    -0.07410
Co1332     Co  0.34939090  0.65247288  0.79606952     0.74180
N1333       N  0.35608498  0.61033799  0.76856893    -0.26590
Co1334     Co  0.38856061  0.61253513  0.78477405     0.74070
C1335       C  0.37323627  0.54719055  0.80545634     0.42030
N1336       N  0.36790553  0.59351297  0.86791969     0.00430
N1337       N  0.38415335  0.58131662  0.80045214     0.00540
N1338       N  0.37787489  0.67979054  0.76214488    -0.47440
H1339       H  0.29385000  0.64192782  0.79431333     0.06290
N1340       N  0.34093199  0.62646577  0.77324608     0.00820
N1341       N  0.41938577  0.61602923  0.80146126     0.00560
C1342       C  0.45370696  0.62611839  0.80720428     0.42170
N1343       N  0.35230172  0.60961085  0.87080680    -0.26050
C1344       C  0.36258060  0.69925085  0.81586078    -0.06970
N1345       N  0.30805161  0.62968321  0.84817123    -0.47150
N1346       N  0.43768101  0.62389398  0.79086682    -0.47380
C1347       C  0.37046676  0.70737283  0.83832707     0.41940
N1348       N  0.37668071  0.66119179  0.77512296     0.00810
N1349       N  0.38776285  0.64502707  0.87295091    -0.26070
N1350       N  0.32355250  0.64256027  0.81661921    -0.26560
N1351       N  0.40485884  0.63069055  0.86938824     0.00450
H1352       H  0.38342543  0.67503843  0.89422803     0.06340
H1353       H  0.45234975  0.61771788  0.84582973     0.06370
N1354       N  0.39189245  0.64539242  0.76955893    -0.26610
N1355       N  0.38743877  0.57746280  0.82276041    -0.26220
N1356       N  0.36289007  0.67202903  0.84065746     0.00810
C1357       C  0.32427829  0.60670520  0.74678604     0.42210
C1358       C  0.33548016  0.60196734  0.88461810    -0.07480
N1359       N  0.42274363  0.61263798  0.82383768    -0.26220
H1360       H  0.38145601  0.54789213  0.84416014     0.06360
N1361       N  0.32190621  0.62505291  0.76067631    -0.47450
H1362       H  0.32069829  0.61179220  0.89025865     0.06340
C1363       C  0.41788269  0.65611006  0.89374653     0.42040
C1364       C  0.30173325  0.63875514  0.81091971    -0.06970
Co1365     Co  0.35687051  0.64139408  0.85577110     0.73820
N1366       N  0.36237377  0.57435768  0.87944626    -0.47160
C1367       C  0.39538413  0.67675867  0.74724041     0.42310
N1368       N  0.37117393  0.68933512  0.85223550    -0.47150
Co1369     Co  0.39676807  0.60268209  0.84619980     0.73890
C1370       C  0.44440287  0.61834508  0.82896364    -0.07480
C1371       C  0.34720506  0.59686624  0.75184584    -0.07040
N1372       N  0.35845363  0.67708600  0.81906887    -0.26570
N1373       N  0.37569948  0.56348727  0.78948440    -0.47330
H1374       H  0.41720137  0.64389088  0.74225063     0.06320
C1375       C  0.39409507  0.66113503  0.88810706    -0.07460
Cl1376     Cl  0.37303475  0.62713727  0.82067976    -0.50460
C1377       C  0.34178501  0.57845726  0.89031874     0.42070
H1378       H  0.36005677  0.70844261  0.79987104     0.06280
N1379       N  0.42363473  0.63671992  0.88157332    -0.47170
C1380       C  0.15917668  0.70742531  0.63556349     0.41920
N1381       N  0.15643355  0.67163393  0.64100781     0.00810
C1382       C  0.24604229  0.59590621  0.65635314    -0.07060
H1383       H  0.25442821  0.64406885  0.58636594     0.06310
C1384       C  0.17246343  0.61849010  0.55741505    -0.07410
Co1385     Co  0.20075662  0.65086104  0.65546977     0.74180
N1386       N  0.22864226  0.64484970  0.61321254    -0.26590
Co1387     Co  0.21375914  0.61217448  0.61524700     0.74070
C1388       C  0.19468076  0.62657397  0.54916758     0.42030
N1389       N  0.13054903  0.63075376  0.59559371     0.00430
N1390       N  0.19865883  0.61633877  0.58376197     0.00540
N1391       N  0.23622807  0.62271957  0.68263367    -0.47440
H1392       H  0.19746772  0.70713894  0.64726875     0.06290
N1393       N  0.22325920  0.66026384  0.62884030     0.00820
N1394       N  0.19845188  0.58082177  0.61799417     0.00560
C1395       C  0.19400104  0.54589956  0.62573520     0.42170
N1396       N  0.12602166  0.64489313  0.61255541    -0.26050
C1397       C  0.18184888  0.63837030  0.70346428    -0.06970
N1398       N  0.14489088  0.68969727  0.63425390    -0.47150
N1399       N  0.20975287  0.56249102  0.62492188    -0.47380
C1400       C  0.15907968  0.63308914  0.71267588     0.41940
N1401       N  0.22329804  0.62433067  0.66385502     0.00810
N1402       N  0.12648650  0.60898522  0.64779117    -0.26070
N1403       N  0.17804926  0.67610043  0.64612043    -0.26560
N1404       N  0.13022977  0.59301638  0.63230063     0.00450
H1405       H  0.10584357  0.61093092  0.67856995     0.06340
H1406       H  0.15535047  0.54662601  0.61672723     0.06370
N1407       N  0.22869742  0.60905717  0.64811236    -0.26610
N1408       N  0.17651549  0.61274982  0.57930018    -0.26220
N1409       N  0.15655024  0.63640732  0.67627241     0.00810
C1410       C  0.25029649  0.67624111  0.60906786     0.42210
C1411       C  0.11133724  0.66113592  0.60520989    -0.07480
N1412       N  0.17625526  0.57698076  0.61396452    -0.26220
H1413       H  0.15596438  0.61779359  0.54869237     0.06360
N1414       N  0.23587439  0.67916972  0.62715012    -0.47450
H1415       H  0.10436124  0.67471149  0.61568720     0.06340
C1416       C  0.10691890  0.57787220  0.65747457     0.42040
C1417       C  0.18149420  0.69843748  0.64340503    -0.06970
Co1418     Co  0.14131856  0.64076033  0.64476999     0.73820
N1419       N  0.11987542  0.63724114  0.57603329    -0.47160
C1420       C  0.25097759  0.60503284  0.67946540     0.42310
N1421       N  0.14463709  0.63160265  0.69474450    -0.47150
Co1422     Co  0.15313938  0.60252622  0.60439125     0.73890
C1423       C  0.17189961  0.55500279  0.61828612    -0.07480
C1424       C  0.24560201  0.65329695  0.59987638    -0.07040
N1425       N  0.17839889  0.64064342  0.68080927    -0.26570
N1426       N  0.21007593  0.62463553  0.56615004    -0.47330
H1427       H  0.25507698  0.58277692  0.64679898     0.06320
C1428       C  0.11209789  0.60125073  0.66399471    -0.07460
Cl1429     Cl  0.17727558  0.62646980  0.62991217    -0.50460
C1430       C  0.10749108  0.65680842  0.58077503     0.42070
H1431       H  0.19772448  0.64213991  0.71252689     0.06280
N1432       N  0.11869156  0.57375562  0.63740891    -0.47170
C1433       C  0.15626488  0.91868595  0.60560751     0.41920
N1434       N  0.14470949  0.89000135  0.62644046     0.00810
C1435       C  0.06547791  0.87665994  0.71362283    -0.07060
H1436       H  0.12785140  0.94108936  0.72776068     0.06310
C1437       C  0.18518105  0.87961293  0.73442165    -0.07410
Co1438     Co  0.10281343  0.89693521  0.65578266     0.74180
N1439       N  0.11702974  0.91949990  0.70022541    -0.26590
Co1440     Co  0.11630798  0.88813492  0.71618080     0.74070
C1441       C  0.18060242  0.89848090  0.75004888     0.42030
N1442       N  0.17992369  0.86079884  0.67776966     0.00430
N1443       N  0.15025500  0.89200944  0.72935840     0.00540
N1444       N  0.05683066  0.88242666  0.67587265    -0.47440
H1445       H  0.12608022  0.94095989  0.61914998     0.06290
N1446       N  0.11159255  0.92314000  0.67836174     0.00820
N1447       N  0.11577722  0.85524845  0.73147670     0.00560
C1448       C  0.11176352  0.82582651  0.75367215     0.42170
N1449       N  0.17475871  0.86306601  0.65587569    -0.26050
C1450       C  0.07466638  0.86346629  0.62101240    -0.06970
N1451       N  0.16040190  0.89659971  0.61120078    -0.47150
N1452       N  0.10374257  0.84736450  0.74932308    -0.47380
C1453       C  0.08040819  0.84200532  0.60811396     0.41940
N1454       N  0.07873882  0.88663467  0.68019355     0.00810
N1455       N  0.14001417  0.82746059  0.65884751    -0.26070
N1456       N  0.12970537  0.90613116  0.63175727    -0.26560
N1457       N  0.14592077  0.82441081  0.68052931     0.00450
H1458       H  0.12555327  0.80500753  0.63338098     0.06340
H1459       H  0.14230926  0.80730914  0.73683550     0.06370
N1460       N  0.08406640  0.88347577  0.70223993    -0.26610
N1461       N  0.16559309  0.87682715  0.72260402    -0.26220
N1462       N  0.10956411  0.85365091  0.62893550     0.00810
C1463       C  0.11801940  0.95631862  0.69234687     0.42210
C1464       C  0.19287957  0.87137563  0.64506039    -0.07480
N1465       N  0.13168496  0.84064740  0.72481573    -0.26220
H1466       H  0.20004097  0.86839169  0.73369488     0.06360
N1467       N  0.11204983  0.94506640  0.67300921    -0.47450
H1468       H  0.19355183  0.87403565  0.62675375     0.06340
C1469       C  0.13314551  0.79231634  0.66986438     0.42040
C1470       C  0.13550542  0.92502526  0.61930918    -0.06970
Co1471     Co  0.14270205  0.85795597  0.64221015     0.73820
N1472       N  0.20111345  0.86729419  0.68259097    -0.47160
C1473       C  0.04787359  0.87589397  0.69614208     0.42310
N1474       N  0.10253842  0.83764328  0.61427007    -0.47150
Co1475     Co  0.15633436  0.85025886  0.70120308     0.73890
C1476       C  0.13037504  0.82158349  0.73749650    -0.07480
C1477       C  0.12201880  0.93931547  0.71018652    -0.07040
N1478       N  0.09369407  0.86905833  0.63346955    -0.26570
N1479       N  0.15830678  0.90510127  0.74641280    -0.47330
H1480       H  0.06450229  0.87296934  0.73184441     0.06320
C1481       C  0.13122231  0.80814827  0.65083267    -0.07460
Cl1482     Cl  0.12945806  0.87352112  0.67884956    -0.50460
C1483       C  0.21057187  0.87448384  0.66273370     0.42070
H1484       H  0.05925165  0.87386286  0.62031733     0.06280
N1485       N  0.14236731  0.80338397  0.68779067    -0.47170
C1486       C  0.21022802  0.66158549  0.87096124     0.41920
N1487       N  0.17487006  0.65973697  0.86209149     0.00810
C1488       C  0.10120155  0.75020337  0.84540156    -0.07060
H1489       H  0.14725833  0.75784758  0.91565634     0.06310
C1490       C  0.12020572  0.67297628  0.94220544    -0.07410
Co1491     Co  0.15569988  0.70426246  0.84735867     0.74180
N1492       N  0.14881913  0.73132043  0.88965477    -0.26590
Co1493     Co  0.11581454  0.71658252  0.88601009     0.74070
C1494       C  0.12775320  0.69453300  0.95190861     0.42030
N1495       N  0.13275515  0.63250394  0.90426360     0.00430
N1496       N  0.11880214  0.70027882  0.91716710     0.00540
N1497       N  0.12920864  0.74090673  0.82016648    -0.47440
H1498       H  0.21186974  0.69973458  0.85991217     0.06290
N1499       N  0.16471701  0.72582318  0.87451469     0.00820
N1500       N  0.08434050  0.70117108  0.88117681     0.00560
C1501       C  0.04971234  0.69682128  0.87050844     0.42170
N1502       N  0.14762532  0.62828336  0.88783567    -0.26050
C1503       C  0.13791816  0.68930378  0.80064942    -0.06970
N1504       N  0.19181081  0.64826862  0.87145412    -0.47150
N1505       N  0.06639990  0.71238078  0.87291746    -0.47380
C1506       C  0.12731218  0.66887161  0.79103270     0.41940
N1507       N  0.12976645  0.72739081  0.83848222     0.00810
N1508       N  0.11268450  0.62984465  0.85145765    -0.26070
N1509       N  0.18024577  0.68102934  0.85725475    -0.26560
N1510       N  0.09644929  0.63277588  0.86679039     0.00450
H1511       H  0.11631483  0.60937928  0.82121949     0.06340
H1512       H  0.05010650  0.65826507  0.87895829     0.06370
N1513       N  0.11381360  0.73249189  0.85364838    -0.26610
N1514       N  0.11509809  0.67806647  0.92045344    -0.26220
N1515       N  0.14067490  0.66114491  0.82463343     0.00810
C1516       C  0.18026075  0.75333643  0.89388713     0.42210
C1517       C  0.16353978  0.61336528  0.89563458    -0.07480
N1518       N  0.08025173  0.67900732  0.88446371    -0.26220
H1519       H  0.11892263  0.65627078  0.95017671     0.06360
N1520       N  0.18351807  0.73861616  0.87621571    -0.47450
H1521       H  0.17781259  0.60660618  0.88597633     0.06340
C1522       C  0.08286385  0.60754981  0.84240254     0.42040
C1523       C  0.20245698  0.68394064  0.86222615    -0.06970
Co1524     Co  0.14435830  0.64466200  0.85594570     0.73820
N1525       N  0.13813248  0.62128248  0.92376616    -0.47160
C1526       C  0.11136621  0.75556405  0.82286446     0.42310
N1527       N  0.13022533  0.65206139  0.80670456    -0.47150
Co1528     Co  0.10523636  0.65537665  0.89483045     0.73890
C1529       C  0.05851109  0.67478355  0.87838130    -0.07480
C1530       C  0.15698324  0.74860596  0.90278715    -0.07040
N1531       N  0.14521711  0.68302541  0.82148803    -0.26570
N1532       N  0.12597532  0.71084836  0.93585297    -0.47330
H1533       H  0.08803284  0.75941218  0.85478285     0.06320
C1534       C  0.10583107  0.61489790  0.83549099    -0.07460
Cl1535     Cl  0.13001161  0.68033876  0.87116684    -0.50460
C1536       C  0.15781690  0.60889386  0.91958162     0.42070
H1537       H  0.13860819  0.70652584  0.79409582     0.06280
N1538       N  0.07810146  0.61962423  0.86214758    -0.47170
C1539       C  0.34355155  0.87097946  0.79198716     0.41920
N1540       N  0.34459457  0.86167288  0.82714079     0.00810
C1541       C  0.25346823  0.84832573  0.90069499    -0.07060
H1542       H  0.24643162  0.91903943  0.85321160     0.06310
C1543       C  0.33202801  0.94348720  0.87825106    -0.07410
Co1544     Co  0.29879490  0.84954864  0.84551667     0.74180
N1545       N  0.27232811  0.89225122  0.85193380    -0.26590
Co1546     Co  0.28696199  0.88905872  0.88496247     0.74070
C1547       C  0.31052845  0.95317101  0.86974098     0.42030
N1548       N  0.37259676  0.90345082  0.86903746     0.00430
N1549       N  0.30410092  0.91933892  0.88084106     0.00540
N1550       N  0.26267570  0.82267751  0.87302676    -0.47440
H1551       H  0.30455436  0.86289117  0.78951808     0.06290
N1552       N  0.27761865  0.87701316  0.83613921     0.00820
N1553       N  0.30174625  0.88568472  0.91685134     0.00560
C1554       C  0.30531768  0.88027748  0.95252819     0.42170
N1555       N  0.37630920  0.88625577  0.85501195    -0.26050
C1556       C  0.31378420  0.80145832  0.85899191    -0.06970
N1557       N  0.35710594  0.86971326  0.81034872    -0.47150
N1558       N  0.28978950  0.88113128  0.93549753    -0.47380
C1559       C  0.33485550  0.79119407  0.86757340     0.41940
N1560       N  0.27539380  0.84146194  0.87148353     0.00810
N1561       N  0.37233832  0.85170094  0.89084715    -0.26070
N1562       N  0.32285712  0.85859054  0.82142372    -0.26560
N1563       N  0.36923121  0.86755323  0.90659091     0.00450
H1564       H  0.39212358  0.82033099  0.88955243     0.06340
H1565       H  0.34440430  0.88655759  0.95204182     0.06370
N1566       N  0.27053138  0.85680166  0.88738148    -0.26610
N1567       N  0.32648544  0.92228098  0.88461815    -0.26220
N1568       N  0.34092819  0.82634200  0.86209542     0.00810
C1569       C  0.25048058  0.89710079  0.82041010     0.42210
C1570       C  0.39285540  0.89171309  0.83999188    -0.07480
N1571       N  0.32408307  0.88844715  0.92100783    -0.26220
H1572       H  0.34899943  0.95107852  0.87920772     0.06360
N1573       N  0.26487228  0.87907071  0.81720924    -0.47450
H1574       H  0.39964912  0.88061028  0.82678672     0.06340
C1575       C  0.39156736  0.84196122  0.92244609     0.42040
C1576       C  0.32043972  0.86395277  0.79927719    -0.06970
Co1577     Co  0.35849825  0.85594283  0.85842059     0.73820
N1578       N  0.38618457  0.92136712  0.86398903    -0.47160
C1579       C  0.24842351  0.82543859  0.89114715     0.42310
N1580       N  0.35079450  0.80752013  0.86941521    -0.47150
Co1581     Co  0.34825353  0.89636868  0.89614733     0.73890
C1582       C  0.32794686  0.88513468  0.94332966    -0.07480
C1583       C  0.25532642  0.90582378  0.84364595    -0.07040
N1584       N  0.31928012  0.82334064  0.85599904    -0.26570
N1585       N  0.29393313  0.93758554  0.87223175    -0.47330
H1586       H  0.24494167  0.85737708  0.91451095     0.06320
C1587       C  0.38610491  0.83510373  0.89905465    -0.07460
Cl1588     Cl  0.32307719  0.87280286  0.87140766    -0.50460
C1589       C  0.39952692  0.91497419  0.84555337     0.42070
H1590       H  0.29734498  0.79365506  0.85502981     0.06280
N1591       N  0.38064526  0.86250317  0.92606892    -0.47170
C1592       C  0.16043856  0.63203135  0.29231607     0.41920
N1593       N  0.15653778  0.63849202  0.32801383     0.00810
C1594       C  0.24810514  0.65422155  0.40309107    -0.07060
H1595       H  0.25686919  0.58344379  0.35454236     0.06310
C1596       C  0.17256270  0.55604940  0.38429769    -0.07410
Co1597     Co  0.20159164  0.65091897  0.34917928     0.74180
N1598       N  0.23000454  0.60941731  0.35496933    -0.26590
Co1599     Co  0.21539473  0.61245431  0.38832974     0.74070
C1600       C  0.19462990  0.54658802  0.37749827     0.42030
N1601       N  0.13115170  0.59420181  0.37115715     0.00430
N1602       N  0.19953610  0.58140799  0.38527962     0.00540
N1603       N  0.23706916  0.67922327  0.37542989    -0.47440
H1604       H  0.19979146  0.63422443  0.29464502     0.06290
N1605       N  0.22378655  0.62482395  0.33962099     0.00820
N1606       N  0.20033936  0.61633933  0.42001938     0.00560
C1607       C  0.19604830  0.62541369  0.45492393     0.42170
N1608       N  0.12672927  0.61039996  0.35600043    -0.26050
C1609       C  0.18458914  0.69778163  0.36579686    -0.06970
N1610       N  0.14498135  0.63355766  0.30931385    -0.47150
N1611       N  0.21165837  0.62400972  0.43811110    -0.47380
C1612       C  0.16233932  0.70873654  0.36906374     0.41940
N1613       N  0.22471656  0.66020694  0.37471620     0.00810
N1614       N  0.12778759  0.64653606  0.39170762    -0.26070
N1615       N  0.17879916  0.64033973  0.32441694    -0.26560
N1616       N  0.13219333  0.63158167  0.40811200     0.00450
H1617       H  0.10770109  0.67771756  0.39013227     0.06340
H1618       H  0.15738475  0.61666831  0.45451654     0.06370
N1619       N  0.23075247  0.64514052  0.39045120    -0.26610
N1620       N  0.17723817  0.57786572  0.38888360    -0.26220
N1621       N  0.15737737  0.67328881  0.36235666     0.00810
C1622       C  0.25051430  0.60592614  0.32222012     0.42210
C1623       C  0.11249169  0.60225173  0.33964624    -0.07480
N1624       N  0.17812857  0.61273328  0.42411134    -0.26220
H1625       H  0.15594625  0.54783090  0.38586114     0.06360
N1626       N  0.23572989  0.62368878  0.32025746    -0.47450
H1627       H  0.10602645  0.61182755  0.32504032     0.06340
C1628       C  0.11051306  0.65778022  0.42403677     0.42040
C1629       C  0.18305143  0.63442084  0.30275113    -0.06970
Co1630     Co  0.14184582  0.64254538  0.35914125     0.73820
N1631       N  0.12040932  0.57456483  0.36569557    -0.47160
C1632       C  0.25212863  0.67715634  0.39305613     0.42310
N1633       N  0.14645469  0.69216296  0.36774890    -0.47150
Co1634     Co  0.15441175  0.60325187  0.39891693     0.73890
C1635       C  0.17394586  0.61767722  0.44607927    -0.07480
C1636       C  0.24708042  0.59657012  0.34564501    -0.07040
N1637       N  0.17966428  0.67631928  0.35993468    -0.26570
N1638       N  0.21064359  0.56289384  0.37874615    -0.47330
H1639       H  0.25751263  0.64546885  0.41662064     0.06320
C1640       C  0.11421422  0.66330938  0.39990923    -0.07460
Cl1641     Cl  0.17835620  0.62719355  0.37401421    -0.50460
C1642       C  0.10821211  0.57839899  0.34575549     0.42070
H1643       H  0.20157464  0.70528926  0.36596505     0.06280
N1644       N  0.12194450  0.63750978  0.42791540    -0.47170
C1645       C  0.34870930  0.57495385  0.10563657     0.41920
N1646       N  0.36064676  0.60495249  0.12412496     0.00810
C1647       C  0.43360432  0.62218033  0.21644920    -0.07060
H1648       H  0.36435437  0.56205766  0.22961837     0.06310
C1649       C  0.31313199  0.62442031  0.23042107    -0.07410
Co1650     Co  0.39917039  0.59947488  0.15757269     0.74180
N1651       N  0.38018121  0.58106392  0.20216600    -0.26590
Co1652     Co  0.38229335  0.61298288  0.21628585     0.74070
C1653       C  0.31712294  0.60674526  0.24796556     0.42030
N1654       N  0.32284368  0.63915499  0.17047091     0.00430
N1655       N  0.34784739  0.61111400  0.22744385     0.00540
N1656       N  0.44373978  0.61392458  0.17968939    -0.47440
H1657       H  0.37574106  0.55226346  0.12471602     0.06290
N1658       N  0.38607306  0.57581494  0.18077797     0.00820
N1659       N  0.38309358  0.64670714  0.22942131     0.00560
C1660       C  0.38545887  0.67691459  0.25094898     0.42170
N1661       N  0.32969335  0.63346713  0.14968019    -0.26050
C1662       C  0.43184097  0.63199534  0.12441348    -0.06970
N1663       N  0.34574406  0.59767428  0.10840735    -0.47150
N1664       N  0.39343028  0.65509865  0.24814965    -0.47380
C1665       C  0.42685809  0.65273772  0.11008577     0.41940
N1666       N  0.42160328  0.61064404  0.18298705     0.00810
N1667       N  0.36422386  0.66932362  0.15223973    -0.26070
N1668       N  0.37424291  0.58879622  0.13220143    -0.26560
N1669       N  0.35792898  0.67394793  0.17348105     0.00450
H1670       H  0.37828907  0.69015960  0.12519015     0.06340
H1671       H  0.35772267  0.69550636  0.22942101     0.06370
N1672       N  0.41532427  0.61536746  0.20440313    -0.26610
N1673       N  0.33304483  0.62590777  0.21872060    -0.26220
N1674       N  0.39590299  0.64074759  0.12699591     0.00810
C1675       C  0.37126526  0.54566458  0.19462087     0.42210
C1676       C  0.31211370  0.62455727  0.13819971    -0.07480
N1677       N  0.36825448  0.66128200  0.22044168    -0.26220
H1678       H  0.29855467  0.63589156  0.22850472     0.06360
N1679       N  0.38128217  0.55436709  0.17570836    -0.47450
H1680       H  0.31215524  0.61869719  0.12063152     0.06340
C1681       C  0.37030010  0.70533524  0.16051295     0.42040
C1682       C  0.36796259  0.56887045  0.12166501    -0.06970
Co1683     Co  0.36219165  0.63761240  0.13794208     0.73820
N1684       N  0.30061014  0.63624113  0.17311509    -0.47160
C1685       C  0.45197622  0.62144245  0.19992475     0.42310
N1686       N  0.40411489  0.65659963  0.11282782    -0.47150
Co1687     Co  0.34491259  0.65054052  0.19543826     0.73890
C1688       C  0.36898385  0.68095042  0.23225987    -0.07480
C1689       C  0.37086781  0.56290563  0.21222222    -0.07040
N1690       N  0.41142263  0.62591132  0.13427458    -0.26570
N1691       N  0.33931732  0.59975487  0.24538642    -0.47330
H1692       H  0.43384531  0.62691576  0.23444651     0.06320
C1693       C  0.37265577  0.68820274  0.14278753    -0.07460
Cl1694     Cl  0.37225350  0.62507611  0.17688004    -0.50460
C1695       C  0.29277536  0.62790243  0.15296095     0.42070
H1696       H  0.44813754  0.62326849  0.12696461     0.06280
N1697       N  0.36132022  0.69540070  0.17914434    -0.47170
C1698       C  0.42065782  0.89151353  0.34266985     0.41920
N1699       N  0.39006952  0.87329808  0.35412755     0.00810
C1700       C  0.37168693  0.78735858  0.43383554    -0.07060
H1701       H  0.43760945  0.76983379  0.37244704     0.06310
C1702       C  0.37658802  0.76603106  0.31431947    -0.07410
Co1703     Co  0.39469051  0.84342118  0.39583691     0.74180
N1704       N  0.41593538  0.79819772  0.38223594    -0.26590
Co1705     Co  0.38403679  0.78351847  0.38319887     0.74070
C1706       C  0.39252566  0.74753213  0.32012890     0.42030
N1707       N  0.35995665  0.82341848  0.31893473     0.00430
N1708       N  0.38795795  0.76980046  0.34963877     0.00540
N1709       N  0.37833896  0.82486568  0.44130381    -0.47440
H1710       H  0.44197396  0.87580571  0.37276429     0.06290
N1711       N  0.41995482  0.82017052  0.38644565     0.00820
N1712       N  0.35063115  0.76980167  0.38321790     0.00560
C1713       C  0.32042544  0.74870542  0.38707040     0.42170
N1714       N  0.36243629  0.84526044  0.32375426    -0.26050
C1715       C  0.36068140  0.87723751  0.42467242    -0.06970
N1716       N  0.39804275  0.88776239  0.33835853    -0.47150
N1717       N  0.34179904  0.75285408  0.39576386    -0.47380
C1718       C  0.33997623  0.89110941  0.41859932     0.41940
N1719       N  0.38304716  0.81981475  0.41977107     0.00810
N1720       N  0.32571125  0.84332994  0.35759853    -0.26070
N1721       N  0.40570279  0.86692495  0.36933871    -0.26560
N1722       N  0.32220284  0.82168647  0.35221475     0.00450
H1723       H  0.30364176  0.86937556  0.37153426     0.06340
H1724       H  0.30309510  0.76520021  0.35539779     0.06370
N1725       N  0.37932176  0.79790221  0.41504558    -0.26610
N1726       N  0.37425517  0.77814874  0.33362860    -0.26220
N1727       N  0.35257179  0.87241099  0.38872542     0.00810
C1728       C  0.45221181  0.80594170  0.37763817     0.42210
C1729       C  0.37072193  0.85579374  0.30538160    -0.07480
N1730       N  0.33671846  0.77647660  0.36657782    -0.26220
H1731       H  0.36547596  0.76753771  0.29937959     0.06360
N1732       N  0.44180372  0.82549034  0.38396363    -0.47450
H1733       H  0.37376285  0.87400515  0.30407188     0.06340
C1734       C  0.28999685  0.83324396  0.36477142     0.42040
C1735       C  0.42579564  0.87753533  0.36358389    -0.06970
Co1736     Co  0.35708871  0.85899478  0.35556629     0.73820
N1737       N  0.36638889  0.81838841  0.29784047    -0.47160
C1738       C  0.37077649  0.80531754  0.45082725     0.42310
N1739       N  0.33647152  0.88706866  0.39587576    -0.47150
Co1740     Co  0.34787266  0.80021419  0.34221116     0.73890
C1741       C  0.31723120  0.76423283  0.36757433    -0.07480
C1742       C  0.43552861  0.78777228  0.37668289    -0.07040
N1743       N  0.36720679  0.86640516  0.40500668    -0.26570
N1744       N  0.39863944  0.75076485  0.34259728    -0.47330
H1745       H  0.36750723  0.76936484  0.43534682     0.06320
C1746       C  0.30636671  0.85188917  0.36603533    -0.07460
Cl1747     Cl  0.37100985  0.82151873  0.36931163    -0.50460
C1748       C  0.37305046  0.83808135  0.28790872     0.42070
H1749       H  0.36941659  0.87590265  0.44110838     0.06280
N1750       N  0.30092908  0.81494846  0.35615620    -0.47170
C1751       C  0.13061010  0.67094379  0.20999433     0.41920
N1752       N  0.13999060  0.66374280  0.17551601     0.00810
C1753       C  0.15255408  0.74916850  0.09490728    -0.07060
H1754       H  0.08042354  0.75748542  0.14338117     0.06310
C1755       C  0.05646162  0.67121442  0.11557331    -0.07410
Co1756     Co  0.15163660  0.70689903  0.15181836     0.74180
N1757       N  0.10838173  0.73266737  0.14421027    -0.26590
Co1758     Co  0.11180183  0.71594699  0.11207472     0.74070
C1759       C  0.04598698  0.69250701  0.12323059     0.42030
N1760       N  0.09673554  0.63285878  0.13432293     0.00430
N1761       N  0.08124249  0.69874771  0.11639665     0.00540
N1762       N  0.17876600  0.74056881  0.12250345    -0.47440
H1763       H  0.13585837  0.70942746  0.20567186     0.06290
N1764       N  0.12454224  0.72859301  0.15959501     0.00820
N1765       N  0.11635356  0.69907703  0.08144345     0.00560
C1766       C  0.12617883  0.69327149  0.04707142     0.42170
N1767       N  0.11328708  0.63047613  0.14970554    -0.26050
C1768       C  0.19971456  0.69041770  0.13907145    -0.06970
N1769       N  0.13333971  0.65395536  0.19468199    -0.47150
N1770       N  0.12323092  0.70970907  0.06274348    -0.47380
C1771       C  0.20936229  0.66886458  0.13146172     0.41940
N1772       N  0.15996800  0.72790502  0.12443672     0.00810
N1773       N  0.14908165  0.62977036  0.11363944    -0.26070
N1774       N  0.14198598  0.68609235  0.17769855    -0.26560
N1775       N  0.13381204  0.63248590  0.09709777     0.00450
H1776       H  0.18077518  0.61030525  0.11635548     0.06340
H1777       H  0.11952583  0.65454990  0.04933821     0.06370
N1778       N  0.14422080  0.73243513  0.10870781    -0.26610
N1779       N  0.07848006  0.67654259  0.11255238    -0.26220
N1780       N  0.17444221  0.66347095  0.13941656     0.00810
C1781       C  0.10427038  0.75516248  0.17546338     0.42210
C1782       C  0.10621772  0.61676127  0.16685861    -0.07480
N1783       N  0.11406091  0.67661218  0.07856287    -0.26220
H1784       H  0.04918842  0.65441288  0.11283254     0.06360
N1785       N  0.12292554  0.74162215  0.17813723    -0.47450
H1786       H  0.11643200  0.61165693  0.18162923     0.06340
C1787       C  0.16001424  0.60970486  0.08256211     0.42040
C1788       C  0.13551661  0.69228552  0.19867613    -0.06970
Co1789     Co  0.14469532  0.64667493  0.14507748     0.73820
N1790       N  0.07787682  0.62099410  0.14038622    -0.47160
C1791       C  0.17580591  0.75427608  0.10404267     0.42310
N1792       N  0.19278157  0.65310993  0.13164228    -0.47150
Co1793     Co  0.10495625  0.65434147  0.10480701     0.73890
C1794       C  0.11970117  0.67144014  0.05698814    -0.07480
C1795       C  0.09455349  0.74944513  0.15257557    -0.07040
N1796       N  0.17780678  0.68539373  0.14342272    -0.26570
N1797       N  0.06219408  0.70879760  0.12322871    -0.47330
H1798       H  0.14317466  0.75752174  0.08110740     0.06320
C1799       C  0.16595105  0.61566370  0.10632243    -0.07460
Cl1800     Cl  0.12812778  0.68097608  0.12834645    -0.50460
C1801       C  0.08261090  0.61052403  0.16109986     0.42070
H1802       H  0.20774704  0.70703417  0.14080924     0.06280
N1803       N  0.13957346  0.62074912  0.07811043    -0.47170
C1804       C  0.20870983  0.87174063  0.33743357     0.41920
N1805       N  0.17391402  0.86036758  0.34201290     0.00810
C1806       C  0.09683246  0.84761977  0.25136824    -0.07060
H1807       H  0.14443858  0.91884128  0.24499676     0.06310
C1808       C  0.11778219  0.94195161  0.33072736    -0.07410
Co1809     Co  0.15240480  0.84902002  0.29643164     0.74180
N1810       N  0.14553142  0.89164877  0.27043645    -0.26590
Co1811     Co  0.11270599  0.88761599  0.28539581     0.74070
C1812       C  0.12471541  0.95221145  0.30910154     0.42030
N1813       N  0.13056443  0.90256757  0.37011794     0.00430
N1814       N  0.11605258  0.91778514  0.30273962     0.00540
N1815       N  0.12513148  0.82224147  0.25984788    -0.47440
H1816       H  0.20629297  0.86473139  0.29828690     0.06290
N1817       N  0.16139294  0.87635422  0.27560536     0.00820
N1818       N  0.08133349  0.88293663  0.30080100     0.00560
C1819       C  0.04667686  0.87326125  0.30509457     0.42170
N1820       N  0.14574189  0.88625215  0.37402042    -0.26050
C1821       C  0.13518905  0.80234528  0.31029261    -0.06970
N1822       N  0.19202455  0.86829018  0.35304588    -0.47150
N1823       N  0.06302052  0.87616210  0.28926560    -0.47380
C1824       C  0.12988137  0.79064562  0.33139848     0.41940
N1825       N  0.12642684  0.84072819  0.27302839     0.00810
N1826       N  0.11019750  0.84996291  0.37179736    -0.26070
N1827       N  0.17754846  0.85807842  0.31978677    -0.26560
N1828       N  0.09384776  0.86525802  0.36834138     0.00450
H1829       H  0.11188614  0.81839526  0.39131155     0.06340
H1830       H  0.04737217  0.87973485  0.34406307     0.06370
N1831       N  0.11029501  0.85590950  0.26846852    -0.26610
N1832       N  0.11267567  0.92042974  0.32516379    -0.26220
N1833       N  0.13899191  0.82489539  0.33939594     0.00810
C1834       C  0.17738474  0.89670718  0.24922475     0.42210
C1835       C  0.16187695  0.89396987  0.38873544    -0.07480
N1836       N  0.07755104  0.88520778  0.32323139    -0.26220
H1837       H  0.11656439  0.94950851  0.34766988     0.06360
N1838       N  0.18041224  0.87849306  0.26326029    -0.47450
H1839       H  0.17616506  0.88405738  0.39528264     0.06340
C1840       C  0.07815010  0.83916900  0.39024267     0.42040
C1841       C  0.19897015  0.86470645  0.31526347    -0.06970
Co1842     Co  0.14265894  0.85486087  0.35713606     0.73820
N1843       N  0.13591254  0.92192773  0.38133387    -0.47160
C1844       C  0.10671170  0.82497550  0.24580468     0.42310
N1845       N  0.13191749  0.80572584  0.34869900    -0.47150
Co1846     Co  0.10283874  0.89414911  0.34704893     0.73890
C1847       C  0.05571182  0.87964750  0.32744519    -0.07480
C1848       C  0.15395170  0.90544417  0.25378525    -0.07040
N1849       N  0.14178074  0.82306902  0.31698296    -0.26570
N1850       N  0.12294962  0.93658506  0.29247879    -0.47330
H1851       H  0.08273724  0.85668697  0.24313812     0.06320
C1852       C  0.10212446  0.83310573  0.38538836    -0.07460
Cl1853     Cl  0.12748903  0.87157427  0.32150536    -0.50460
C1854       C  0.15581244  0.91781186  0.39343057     0.42070
H1855       H  0.13592318  0.79562194  0.29300280     0.06280
N1856       N  0.07430655  0.85962587  0.37924212    -0.47170
C1857       C  0.39282916  0.92102304  0.15684125     0.41920
N1858       N  0.37268077  0.89161195  0.14487679     0.00810
C1859       C  0.28497534  0.87772609  0.06520300    -0.07060
H1860       H  0.26924970  0.93608114  0.13524507     0.06310
C1861       C  0.26403535  0.87335156  0.18443585    -0.07410
Co1862     Co  0.34258988  0.89738886  0.10374532     0.74180
N1863       N  0.29699610  0.91660175  0.12027547    -0.26590
Co1864     Co  0.28220385  0.88497899  0.11654115     0.74070
C1865       C  0.24808637  0.89233462  0.18042732     0.42030
N1866       N  0.32208541  0.85867743  0.17835548     0.00430
N1867       N  0.26857647  0.88667038  0.15000700     0.00540
N1868       N  0.32253595  0.88496088  0.05738277    -0.47440
H1869       H  0.37631440  0.94283228  0.12698277     0.06290
N1870       N  0.31889340  0.92137270  0.11572828     0.00820
N1871       N  0.26888440  0.85145467  0.11384293     0.00560
C1872       C  0.24820824  0.82138387  0.10741938     0.42170
N1873       N  0.34394163  0.86281806  0.17393724    -0.26050
C1874       C  0.37689881  0.86458967  0.07301771    -0.06970
N1875       N  0.38775403  0.89871400  0.16047463    -0.47150
N1876       N  0.25162077  0.84351283  0.10093890    -0.47380
C1877       C  0.39124091  0.84410360  0.07883695     0.41940
N1878       N  0.31825706  0.88715457  0.07949128     0.00810
N1879       N  0.34412161  0.82798749  0.13804158    -0.26070
N1880       N  0.36668766  0.90747663  0.13010042    -0.26560
N1881       N  0.32289249  0.82279196  0.14402934     0.00450
H1882       H  0.37241561  0.80811520  0.12518291     0.06340
H1883       H  0.26585346  0.80171769  0.13705406     0.06370
N1884       N  0.29631556  0.88302968  0.08438162    -0.26610
N1885       N  0.27580767  0.87119037  0.16475213    -0.26220
N1886       N  0.37255854  0.85615687  0.10886305     0.00810
C1887       C  0.30515529  0.95145309  0.13088321     0.42210
C1888       C  0.35339936  0.87188828  0.19266023    -0.07480
N1889       N  0.27632249  0.83626569  0.12892102    -0.26220
H1890       H  0.26552129  0.86217469  0.19923838     0.06360
N1891       N  0.32430861  0.94248080  0.12153496    -0.47450
H1892       H  0.37122511  0.87665685  0.19445840     0.06340
C1893       C  0.33836903  0.79147730  0.13446334     0.42040
C1894       C  0.37824862  0.92686237  0.13610601    -0.06970
Co1895     Co  0.35865683  0.85917938  0.14186502     0.73820
N1896       N  0.31606076  0.86482860  0.19924867    -0.47160
C1897       C  0.30239738  0.87881167  0.04770212     0.42310
N1898       N  0.38747563  0.84045663  0.10147690    -0.47150
Co1899     Co  0.29944563  0.84664130  0.15446618     0.73890
C1900       C  0.26451268  0.81670194  0.12613783    -0.07480
C1901       C  0.28695630  0.93483605  0.12961114    -0.07040
N1902       N  0.36604513  0.87077284  0.09285703    -0.26570
N1903       N  0.25154809  0.89952545  0.15843711    -0.47330
H1904       H  0.26673534  0.87412312  0.06378948     0.06320
C1905       C  0.35452717  0.80946361  0.13010984    -0.07460
Cl1906     Cl  0.32063888  0.87210799  0.12884859    -0.50460
C1907       C  0.33492497  0.87329718  0.20953717     0.42070
H1908       H  0.37523539  0.87331666  0.05665591     0.06280
N1909       N  0.31880146  0.80073551  0.14253362    -0.47170
C1910       C  0.89213999  0.57798330  0.34299258     0.41920
N1911       N  0.87484156  0.60777225  0.35815246     0.00810
C1912       C  0.78504353  0.61950548  0.43436133    -0.07060
H1913       H  0.76920825  0.56433477  0.36272205     0.06310
C1914       C  0.76823247  0.63257211  0.31608487    -0.07410
Co1915     Co  0.84316734  0.59913219  0.39753578     0.74180
N1916       N  0.79782190  0.58252197  0.37772727    -0.26590
Co1917     Co  0.78386859  0.61438941  0.38313777     0.74070
C1918       C  0.75186779  0.61351603  0.31809140     0.42030
N1919       N  0.82737359  0.64754104  0.32674521     0.00430
N1920       N  0.77206562  0.61612341  0.34920359     0.00540
N1921       N  0.82213215  0.61050729  0.44356455    -0.47440
H1922       H  0.87364647  0.55420753  0.36926799     0.06290
N1923       N  0.81931817  0.57658220  0.38300390     0.00820
N1924       N  0.77055672  0.64771355  0.38828334     0.00560
C1925       C  0.74919804  0.67715704  0.39602488     0.42170
N1926       N  0.84879840  0.64215610  0.33234497    -0.26050
C1927       C  0.87685800  0.62892911  0.43275342    -0.06970
N1928       N  0.88940538  0.60110367  0.34175859    -0.47150
N1929       N  0.75238610  0.65448998  0.40054364    -0.47380
C1930       C  0.89110969  0.64999636  0.42916620     0.41940
N1931       N  0.81825137  0.60816962  0.42138922     0.00810
N1932       N  0.84784089  0.67230204  0.37099617    -0.26070
N1933       N  0.86743980  0.59077663  0.37093103    -0.26560
N1934       N  0.82671500  0.67846227  0.36513738     0.00450
H1935       H  0.87643916  0.69058181  0.38560649     0.06340
H1936       H  0.76867704  0.69941340  0.36979283     0.06370
N1937       N  0.79665670  0.61341606  0.41574305    -0.26610
N1938       N  0.77978957  0.63286891  0.33622269    -0.26220
N1939       N  0.87409318  0.63986046  0.39757582     0.00810
C1940       C  0.80425502  0.54695678  0.36809809     0.42210
C1941       C  0.86070703  0.63787212  0.31363202    -0.07480
N1942       N  0.77887503  0.66423270  0.37539440    -0.26220
H1943       H  0.76989648  0.64506854  0.30242629     0.06360
N1944       N  0.82369703  0.55502318  0.37779935    -0.47450
H1945       H  0.87902649  0.63472546  0.31288075     0.06340
C1946       C  0.84292046  0.70900566  0.37693509     0.42040
C1947       C  0.87718690  0.57118133  0.36273429    -0.06970
Co1948     Co  0.86165250  0.64079003  0.36451470     0.73820
N1949       N  0.82377635  0.64720059  0.30442921    -0.47160
C1950       C  0.80201914  0.61792449  0.45220181     0.42310
N1951       N  0.88818508  0.65517264  0.40681987    -0.47150
Co1952     Co  0.80330018  0.65631318  0.35045822     0.73890
C1953       C  0.76676923  0.68350499  0.37917322    -0.07480
C1954       C  0.78701693  0.56475598  0.36830874    -0.07040
N1955       N  0.86691202  0.62408497  0.41194533    -0.26570
N1956       N  0.75510249  0.60436894  0.33931013    -0.47330
H1957       H  0.76719297  0.62487869  0.43504305     0.06320
C1958       C  0.85866693  0.69017190  0.38004902    -0.07460
Cl1959     Cl  0.82287407  0.62749378  0.37400495    -0.50460
C1960       C  0.84402662  0.64057840  0.29568742     0.42070
H1961       H  0.87419731  0.61938577  0.44848719     0.06280
N1962       N  0.82314624  0.70046502  0.36828953    -0.47170
C1963       C  0.63704025  0.82766174  0.28839334     0.41920
N1964       N  0.64323934  0.83376364  0.32364980     0.00810
C1965       C  0.65204411  0.74862711  0.40497951    -0.07060
H1966       H  0.58202276  0.74206546  0.35311855     0.06310
C1967       C  0.55941385  0.82964809  0.37789200    -0.07410
Co1968     Co  0.65417862  0.79063135  0.34784082     0.74180
N1969       N  0.61007754  0.76659162  0.35341047    -0.26590
Co1970     Co  0.61297144  0.78301112  0.38583561     0.74070
C1971       C  0.54807272  0.80820325  0.37284944     0.42030
N1972       N  0.60022695  0.86636323  0.36257051     0.00430
N1973       N  0.58290188  0.80097825  0.38061613     0.00540
N1974       N  0.67890741  0.75574944  0.37788710    -0.47440
H1975       H  0.64627534  0.78951337  0.29128773     0.06290
N1976       N  0.62660487  0.77058681  0.33853067     0.00820
N1977       N  0.61722449  0.80037457  0.41640307     0.00560
C1978       C  0.62604648  0.80665164  0.45107952     0.42170
N1979       N  0.61701873  0.86867882  0.34767928    -0.26050
C1980       C  0.70047730  0.80452437  0.36676664    -0.06970
N1981       N  0.63651204  0.84378896  0.30468894    -0.47150
N1982       N  0.62321420  0.78996025  0.43560918    -0.47380
C1983       C  0.71192866  0.82562991  0.37228286     0.41940
N1984       N  0.66057791  0.76904790  0.37526471     0.00810
N1985       N  0.65227533  0.86849468  0.38387727    -0.26070
N1986       N  0.64730431  0.81175148  0.32091729    -0.26560
N1987       N  0.63639561  0.86690837  0.39981014     0.00450
H1988       H  0.68330373  0.88837939  0.38025371     0.06340
H1989       H  0.62064443  0.84552406  0.44767008     0.06370
N1990       N  0.64447620  0.76536995  0.39061794    -0.26610
N1991       N  0.58097285  0.82355266  0.38276299    -0.26220
N1992       N  0.67831903  0.83351701  0.35968751     0.00810
C1993       C  0.60642261  0.74470079  0.32172767     0.42210
C1994       C  0.61016714  0.88310545  0.33090126    -0.07480
N1995       N  0.61552360  0.82300617  0.41871275    -0.26220
H1996       H  0.55240057  0.84683277  0.37864907     0.06360
N1997       N  0.62527770  0.75790580  0.31976855    -0.47450
H1998       H  0.62078290  0.88862614  0.31668420     0.06340
C1999       C  0.66098164  0.89211397  0.41267620     0.42040
C2000       C  0.64415386  0.80630145  0.29887310    -0.06970
Co2001     Co  0.64820492  0.85123781  0.35324321     0.73820
N2002       N  0.58143874  0.87837182  0.35650167    -0.47160
C2003       C  0.67525477  0.74253629  0.39648096     0.42310
N2004       N  0.69715951  0.84291554  0.36785514    -0.47150
Co2005     Co  0.60756323  0.84525878  0.39177748     0.73890
C2006       C  0.62060241  0.82846104  0.44041084    -0.07480
C2007       C  0.59626686  0.75019820  0.34438660    -0.07040
N2008       N  0.68014652  0.81105516  0.35838178    -0.26570
N2009       N  0.56330653  0.79108490  0.37509187    -0.47330
H2010       H  0.64222960  0.74096281  0.41876800     0.06320
C2011       C  0.66847892  0.88352268  0.39036906    -0.07460
Cl2012     Cl  0.63050929  0.81752452  0.36994533    -0.50460
C2013       C  0.58619603  0.88938094  0.33625707     0.42070
H2014       H  0.70692151  0.78718389  0.36797141     0.06280
N2015       N  0.64080590  0.88091260  0.41749457    -0.47170
C2016       C  0.70819660  0.63143964  0.15834250     0.41920
N2017       N  0.67219674  0.63659591  0.15579479     0.00810
C2018       C  0.59758626  0.65449056  0.24500994    -0.07060
H2019       H  0.64746850  0.58574714  0.25543807     0.06310
C2020       C  0.62014085  0.55490289  0.17342724    -0.07410
Co2021     Co  0.65214040  0.65281096  0.19931412     0.74180
N2022       N  0.64708216  0.61155240  0.22860512    -0.26590
Co2023     Co  0.61388167  0.61274460  0.21403329     0.74070
C2024       C  0.62847666  0.54656453  0.19545539     0.42030
N2025       N  0.63064848  0.59174984  0.13112794     0.00430
N2026       N  0.61815610  0.58103623  0.19954540     0.00540
N2027       N  0.62394114  0.68067152  0.23401071    -0.47440
H2028       H  0.70886083  0.64484533  0.19582865     0.06290
N2029       N  0.66213509  0.62722177  0.22245797     0.00820
N2030       N  0.58202074  0.61484057  0.19909363     0.00560
C2031       C  0.54662994  0.62167367  0.19493483     0.42170
N2032       N  0.64520009  0.60822276  0.12630068    -0.26050
C2033       C  0.63716168  0.69909453  0.17943658    -0.06970
N2034       N  0.69004819  0.62875879  0.14463017    -0.47150
N2035       N  0.56356420  0.62113698  0.21053502    -0.47380
C2036       C  0.62848553  0.70712225  0.15720413     0.41940
N2037       N  0.62556592  0.66165750  0.22165826     0.00810
N2038       N  0.60878997  0.64311203  0.12577566    -0.26070
N2039       N  0.67715585  0.64290609  0.17692967    -0.26560
N2040       N  0.59265513  0.62814578  0.13065536     0.00450
H2041       H  0.61008597  0.67324900  0.10419998     0.06340
H2042       H  0.54687824  0.61245279  0.15649200     0.06370
N2043       N  0.61057550  0.64592631  0.22781861    -0.26610
N2044       N  0.61423306  0.57657526  0.17749338    -0.26220
N2045       N  0.63628555  0.67170297  0.15483136     0.00810
C2046       C  0.67921191  0.60896250  0.24996800     0.42210
C2047       C  0.66163256  0.60034735  0.11217665    -0.07480
N2048       N  0.57784427  0.61069939  0.17703445    -0.26220
H2049       H  0.61890894  0.54612810  0.15708245     0.06360
N2050       N  0.68141131  0.62640042  0.23478491    -0.47450
H2051       H  0.67581378  0.61017207  0.10533326     0.06340
C2052       C  0.57661349  0.65294207  0.10744615     0.42040
C2053       C  0.69969210  0.64037388  0.18023486    -0.06970
Co2054     Co  0.64103579  0.64033058  0.14053776     0.73820
N2055       N  0.63667459  0.57202383  0.12092839    -0.47160
C2056       C  0.60629193  0.67782397  0.24886495     0.42310
N2057       N  0.62814742  0.68914118  0.14312830    -0.47150
Co2058     Co  0.60296460  0.60093900  0.15390146     0.73890
C2059       C  0.55561098  0.61456100  0.17283788    -0.07480
C2060       C  0.65624600  0.59907741  0.24597252    -0.07040
N2061       N  0.64134198  0.67692611  0.17626023    -0.26570
N2062       N  0.62625168  0.56326862  0.21102459    -0.47330
H2063       H  0.58502593  0.64498580  0.25485234     0.06320
C2064       C  0.60054572  0.65897356  0.11118736    -0.07460
Cl2065     Cl  0.62737903  0.62663792  0.17700166    -0.50460
C2066       C  0.65640387  0.57629043  0.10875576     0.42070
H2067       H  0.64032860  0.70838142  0.19522734     0.06280
N2068       N  0.57275040  0.63336923  0.11996647    -0.47170
C2069       C  0.65780192  0.87495076  0.20952175     0.41920
N2070       N  0.65574461  0.86636836  0.17403172     0.00810
C2071       C  0.74588822  0.84665869  0.10037183    -0.07060
H2072       H  0.75536132  0.91803112  0.14528251     0.06310
C2073       C  0.67062844  0.94457574  0.11785163    -0.07410
Co2074     Co  0.70063485  0.85086703  0.15542169     0.74180
N2075       N  0.72851400  0.89236991  0.14728556    -0.26590
Co2076     Co  0.71376376  0.88829968  0.11428221     0.74070
C2077       C  0.69222194  0.95347433  0.12672782     0.42030
N2078       N  0.62947117  0.90735434  0.12932195     0.00430
N2079       N  0.69785170  0.91938042  0.11638832     0.00540
N2080       N  0.73628719  0.82196841  0.12880974    -0.47440
H2081       H  0.69647760  0.86494577  0.21076811     0.06290
N2082       N  0.72279360  0.87776721  0.16355046     0.00820
N2083       N  0.69896103  0.88328983  0.08274199     0.00560
C2084       C  0.69508926  0.87190370  0.04855060     0.42170
N2085       N  0.62513985  0.89152127  0.14476144    -0.26050
C2086       C  0.68335850  0.80287050  0.14331470    -0.06970
N2087       N  0.64396693  0.87485769  0.19120209    -0.47150
N2088       N  0.71062791  0.87503418  0.06523799    -0.47380
C2089       C  0.66172284  0.79363005  0.13496772     0.41940
N2090       N  0.72369878  0.84095217  0.12968594     0.00810
N2091       N  0.62672232  0.85426919  0.11084337    -0.26070
N2092       N  0.67736284  0.86204137  0.17936449    -0.26560
N2093       N  0.63057577  0.86860376  0.09384508     0.00450
H2094       H  0.60633548  0.82363720  0.11432271     0.06340
H2095       H  0.65632218  0.88008985  0.04772770     0.06370
N2096       N  0.72898066  0.85570658  0.11339809    -0.26610
N2097       N  0.67562536  0.92300008  0.11215669    -0.26220
N2098       N  0.65707072  0.82897025  0.14101871     0.00810
C2099       C  0.75052240  0.89722138  0.17879430     0.42210
C2100       C  0.61024142  0.89965885  0.16037333    -0.07480
N2101       N  0.67674390  0.88636915  0.07813784    -0.26220
H2102       H  0.65385120  0.95266584  0.11687633     0.06360
N2103       N  0.73554648  0.87987644  0.18244321    -0.47450
H2104       H  0.60357376  0.89036377  0.17496496     0.06340
C2105       C  0.60733442  0.84253344  0.07969781     0.42040
C2106       C  0.68049563  0.86729078  0.20138895    -0.06970
Co2107     Co  0.64109140  0.85984306  0.14307167     0.73820
N2108       N  0.61819470  0.92693120  0.13400786    -0.47160
C2109       C  0.75066751  0.82412805  0.11065602     0.42310
N2110       N  0.64629552  0.81058371  0.13403015    -0.47150
Co2111     Co  0.65291052  0.89722343  0.10235481     0.73890
C2112       C  0.67278534  0.87978703  0.05654569    -0.07480
C2113       C  0.74597065  0.90549182  0.15523525    -0.07040
N2114       N  0.67882521  0.82506358  0.14635802    -0.26570
N2115       N  0.70845937  0.93740359  0.12477892    -0.47330
H2116       H  0.75451178  0.85522512  0.08632016     0.06320
C2117       C  0.61256576  0.83755931  0.10375107    -0.07460
Cl2118     Cl  0.67714347  0.87410691  0.12865624    -0.50460
C2119       C  0.60572185  0.92319032  0.15367754     0.42070
H2120       H  0.69969471  0.79439075  0.14641376     0.06280
N2121       N  0.61926356  0.86225058  0.07463206    -0.47170
C2122       C  0.92207595  0.60762918  0.15264118     0.41920
N2123       N  0.89241130  0.62783336  0.14024175     0.00810
C2124       C  0.87251671  0.71719880  0.06578687    -0.07060
H2125       H  0.93338944  0.73293050  0.13609304     0.06310
C2126       C  0.87199522  0.73324463  0.18547848    -0.07410
Co2127     Co  0.89820715  0.65991979  0.10089058     0.74180
N2128       N  0.91576602  0.70529200  0.11924367    -0.26590
Co2129     Co  0.88384395  0.71933747  0.11645006     0.74070
C2130       C  0.88983560  0.75047489  0.18221771     0.42030
N2131       N  0.85668942  0.67554273  0.17560867     0.00430
N2132       N  0.88543083  0.73113023  0.15083020     0.00540
N2133       N  0.88130411  0.68051567  0.05630624    -0.47440
H2134       H  0.94465181  0.62579641  0.12445763     0.06290
N2135       N  0.92162615  0.68402523  0.11354176     0.00820
N2136       N  0.85025145  0.73253238  0.11444017     0.00560
C2137       C  0.81966459  0.75312975  0.10988945     0.42170
N2138       N  0.86267050  0.65464462  0.16947871    -0.26050
C2139       C  0.86624025  0.62592502  0.06846673    -0.06970
N2140       N  0.89934563  0.61207615  0.15523461    -0.47150
N2141       N  0.84169192  0.75015020  0.10250286    -0.47380
C2142       C  0.84529106  0.61191044  0.07342050     0.41940
N2143       N  0.88653131  0.68480055  0.07792622     0.00810
N2144       N  0.82768920  0.65677455  0.13363936    -0.26070
N2145       N  0.90878665  0.63493746  0.12656345    -0.26560
N2146       N  0.82291944  0.67811879  0.13931328     0.00450
H2147       H  0.80694979  0.62982905  0.11955681     0.06340
H2148       H  0.80111835  0.73422920  0.13921521     0.06370
N2149       N  0.88147115  0.70624977  0.08380714    -0.26610
N2150       N  0.87048310  0.72237271  0.16525423    -0.26220
N2151       N  0.85694561  0.62972668  0.10403486     0.00810
C2152       C  0.95139776  0.69895884  0.12847122     0.42210
C2153       C  0.87168829  0.64394239  0.18746043    -0.07480
N2154       N  0.83557871  0.72449277  0.12949722    -0.26220
H2155       H  0.86041672  0.73098963  0.19985425     0.06360
N2156       N  0.94330518  0.67964133  0.11868068    -0.47450
H2157       H  0.87772418  0.62653393  0.18808168     0.06340
C2158       C  0.79163333  0.66538542  0.12598045     0.42040
C2159       C  0.92833330  0.62336954  0.13288916    -0.06970
Co2160     Co  0.85947526  0.64190208  0.13726882     0.73820
N2161       N  0.85985419  0.67925704  0.19764100    -0.47160
C2162       C  0.87192445  0.69997613  0.04819223     0.42310
N2163       N  0.84113891  0.61540607  0.09595297    -0.47150
Co2164     Co  0.84599925  0.69986232  0.15294085     0.73890
C2165       C  0.81583468  0.73628583  0.12801917    -0.07480
C2166       C  0.93347699  0.71581344  0.12900728    -0.07040
N2167       N  0.87206498  0.63637191  0.08867299    -0.26570
N2168       N  0.89692859  0.74865336  0.15999427    -0.47330
H2169       H  0.86646675  0.73474307  0.06539494     0.06320
C2170       C  0.80892168  0.64752808  0.12459605    -0.07460
Cl2171     Cl  0.87221794  0.68032368  0.12673847    -0.50460
C2172       C  0.86900306  0.65980809  0.20596341     0.42070
H2173       H  0.87520254  0.62798275  0.05230688     0.06280
N2174       N  0.80150021  0.68398798  0.13494971    -0.47170
C2175       C  0.85861555  0.79454833  0.33790657     0.41920
N2176       N  0.85521230  0.83006850  0.34304067     0.00810
C2177       C  0.84586223  0.90644950  0.25289281    -0.07060
H2178       H  0.91234857  0.85091653  0.24652761     0.06310
C2179       C  0.94331188  0.87616074  0.32746066    -0.07410
Co2180     Co  0.84233034  0.85339871  0.29948130     0.74180
N2181       N  0.88486291  0.85425558  0.27143078    -0.26590
Co2182     Co  0.88619463  0.88712915  0.28577533     0.74070
C2183       C  0.95166135  0.86810244  0.30538154     0.42030
N2184       N  0.90470293  0.86745835  0.36894897     0.00430
N2185       N  0.91742457  0.88003748  0.30100657     0.00540
N2186       N  0.81724776  0.88315891  0.26470494    -0.47440
H2187       H  0.84691510  0.79659869  0.30017415     0.06290
N2188       N  0.86732628  0.84103490  0.27670877     0.00820
N2189       N  0.88671672  0.91866046  0.30078728     0.00560
C2190       C  0.88272565  0.95422524  0.30494299     0.42170
N2191       N  0.88713757  0.85400511  0.37328914    -0.26050
C2192       C  0.79691539  0.87236955  0.31933493    -0.06970
N2193       N  0.86086549  0.81106808  0.35360950    -0.47150
N2194       N  0.88130434  0.93744526  0.28945520    -0.47380
C2195       C  0.78748911  0.87345217  0.34256268     0.41940
N2196       N  0.83615960  0.88030060  0.27721750     0.00810
N2197       N  0.85484882  0.89291388  0.37385557    -0.26070
N2198       N  0.84937536  0.82686891  0.32134246    -0.26560
N2199       N  0.87087180  0.90811854  0.36925325     0.00450
H2200       H  0.82388850  0.89327284  0.39423200     0.06340
H2201       H  0.89195867  0.95281299  0.34353483     0.06370
N2202       N  0.85333716  0.89345430  0.27077339    -0.26610
N2203       N  0.92188702  0.88325538  0.32316942    -0.26220
N2204       N  0.82376419  0.86816303  0.34451274     0.00810
C2205       C  0.88577612  0.82189401  0.25095404     0.42210
C2206       C  0.89395396  0.83702694  0.38744492    -0.07480
N2207       N  0.89122062  0.92223239  0.32291452    -0.26220
H2208       H  0.95211098  0.87692852  0.34389260     0.06360
N2209       N  0.86693418  0.82174848  0.26462128    -0.47450
H2210       H  0.88291815  0.82368874  0.39412190     0.06340
C2211       C  0.84620465  0.92543921  0.39190916     0.42040
C2212       C  0.85068807  0.80458631  0.31654509    -0.06970
Co2213     Co  0.85495850  0.86092329  0.35881499     0.73820
N2214       N  0.92404250  0.85999637  0.37934301    -0.47160
C2215       C  0.82158689  0.89960099  0.24900794     0.42310
N2216       N  0.80558836  0.87277017  0.35691887    -0.47150
Co2217     Co  0.89801106  0.89610113  0.34633108     0.73890
C2218       C  0.88956306  0.94457624  0.32702462    -0.07480
C2219       C  0.89757706  0.84369802  0.25519964    -0.07040
N2220       N  0.81898216  0.86661618  0.32244505    -0.26570
N2221       N  0.93504957  0.87143949  0.28967712    -0.47330
H2222       H  0.85644538  0.91794887  0.24287381     0.06320
C2223       C  0.83908647  0.90193824  0.38798159    -0.07460
Cl2224     Cl  0.87045122  0.87451952  0.32257073    -0.50460
C2225       C  0.91866207  0.84047790  0.39136209     0.42070
H2226       H  0.78777388  0.87178013  0.30307286     0.06280
N2227       N  0.86629891  0.92822639  0.37965628    -0.47170
C2228       C  0.11022342  0.42368839  0.34577332     0.41920
N2229       N  0.12837717  0.39344405  0.35801762     0.00810
C2230       C  0.21702992  0.37685481  0.43588449    -0.07060
H2231       H  0.23433570  0.43557523  0.36907602     0.06310
C2232       C  0.23351501  0.37085513  0.31558124    -0.07410
Co2233     Co  0.15959541  0.39862710  0.39837579     0.74180
N2234       N  0.20520911  0.41616625  0.38101323    -0.26590
Co2235     Co  0.21864312  0.38398948  0.38424331     0.74070
C2236       C  0.25008527  0.38936922  0.31886153     0.42030
N2237       N  0.17529061  0.35535800  0.32361190     0.00430
N2238       N  0.23063967  0.38455084  0.35006328     0.00540
N2239       N  0.17968817  0.38530549  0.44408943    -0.47440
H2240       H  0.12718738  0.44568248  0.37447933     0.06290
N2241       N  0.18354967  0.42160959  0.38579433     0.00820
N2242       N  0.23129558  0.35024859  0.38697154     0.00560
C2243       C  0.25263580  0.32034936  0.39309855     0.42170
N2244       N  0.15460489  0.36257376  0.32937374    -0.26050
C2245       C  0.12440691  0.36700076  0.43001360    -0.06970
N2246       N  0.11351520  0.40105634  0.34228472    -0.47150
N2247       N  0.24911910  0.34251358  0.39931257    -0.47380
C2248       C  0.10959795  0.34677954  0.42415212     0.41940
N2249       N  0.18394259  0.38777742  0.42206327     0.00810
N2250       N  0.15461420  0.32816876  0.36557328    -0.26070
N2251       N  0.13538267  0.40932882  0.37238255    -0.26560
N2252       N  0.17553509  0.32194709  0.35940207     0.00450
H2253       H  0.12566114  0.30946578  0.37864142     0.06340
H2254       H  0.23383875  0.30021701  0.36454176     0.06370
N2255       N  0.20565692  0.38285683  0.41687459    -0.26610
N2256       N  0.22247567  0.36907820  0.33574813    -0.26220
N2257       N  0.12866590  0.35845166  0.39434679     0.00810
C2258       C  0.19895672  0.45232053  0.37422322     0.42210
C2259       C  0.14398025  0.37065144  0.31088885    -0.07480
N2260       N  0.22328836  0.33485403  0.37246482    -0.26220
H2261       H  0.23135437  0.35954315  0.30099634     0.06360
N2262       N  0.17914354  0.44336708  0.38196686    -0.47450
H2263       H  0.12679500  0.37762856  0.31020910     0.06340
C2264       C  0.15867981  0.29115438  0.36850653     0.42040
C2265       C  0.12482026  0.42928858  0.36613695    -0.06970
Co2266     Co  0.14138255  0.36034378  0.36145399     0.73820
N2267       N  0.17862429  0.35626049  0.30132204    -0.47160
C2268       C  0.19968017  0.37833582  0.45345544     0.42310
N2269       N  0.11367200  0.34310382  0.40170730    -0.47150
Co2270     Co  0.19901791  0.34472795  0.34735585     0.73890
C2271       C  0.23547259  0.31536330  0.37514360    -0.07480
C2272       C  0.21631524  0.43466729  0.37372288    -0.07040
N2273       N  0.13548528  0.37296807  0.41017221    -0.26570
N2274       N  0.24766954  0.39676688  0.34088625    -0.47330
H2275       H  0.23505114  0.37213321  0.43705838     0.06320
C2276       C  0.14347882  0.30998464  0.37336932    -0.07460
Cl2277     Cl  0.17972368  0.37196396  0.37296571    -0.50460
C2278       C  0.15915921  0.36518681  0.29230463     0.42070
H2279       H  0.12612542  0.37575683  0.44632743     0.06280
N2280       N  0.17859940  0.29969323  0.36051509    -0.47170
C2281       C  0.42540368  0.34823813  0.10802679     0.41920
N2282       N  0.39477965  0.36083280  0.12494167     0.00810
C2283       C  0.37463846  0.43317042  0.21596751    -0.07060
H2284       H  0.43587733  0.36723958  0.23260619     0.06310
C2285       C  0.36787111  0.31459527  0.22977418    -0.07410
Co2286     Co  0.39972890  0.39926333  0.15797397     0.74180
N2287       N  0.41672646  0.37985153  0.20336769    -0.26590
Co2288     Co  0.38414436  0.38209013  0.21620702     0.74070
C2289       C  0.38647706  0.31603178  0.24705980     0.42030
N2290       N  0.35635638  0.32462130  0.16938166     0.00430
N2291       N  0.38465499  0.34738172  0.22662919     0.00540
N2292       N  0.38382110  0.44340436  0.17944817    -0.47440
H2293       H  0.44790671  0.37504964  0.12722357     0.06290
N2294       N  0.42256488  0.38582904  0.18213645     0.00820
N2295       N  0.35007003  0.38437310  0.22820461     0.00560
C2296       C  0.31914053  0.39000195  0.24792011     0.42170
N2297       N  0.36310341  0.33129397  0.14881211    -0.26050
C2298       C  0.36847084  0.43301335  0.12406745    -0.06970
N2299       N  0.40243816  0.34561100  0.10985884    -0.47150
N2300       N  0.34169469  0.39591385  0.24609616    -0.47380
C2301       C  0.34815791  0.42834262  0.10882227     0.41940
N2302       N  0.38795208  0.42155109  0.18310160     0.00810
N2303       N  0.32940062  0.36790683  0.15022328    -0.26070
N2304       N  0.41090338  0.37422077  0.13330279    -0.26560
N2305       N  0.32320807  0.36149950  0.17104031     0.00450
H2306       H  0.31061912  0.38249450  0.12186276     0.06340
H2307       H  0.29931113  0.36295600  0.22699480     0.06370
N2308       N  0.38265910  0.41519218  0.20439399    -0.26610
N2309       N  0.36850629  0.33424196  0.21796997    -0.26220
N2310       N  0.35995487  0.39726053  0.12559943     0.00810
C2311       C  0.45339980  0.37451374  0.19809847     0.42210
C2312       C  0.37075244  0.31336667  0.13712223    -0.07480
N2313       N  0.33472951  0.37070994  0.21885070    -0.26220
H2314       H  0.35399512  0.30254165  0.22786526     0.06360
N2315       N  0.44469337  0.38291978  0.17835779    -0.47450
H2316       H  0.37715445  0.31348774  0.11974072     0.06340
C2317       C  0.29293798  0.37468998  0.15578407     0.42040
C2318       C  0.43122713  0.36755841  0.12369098    -0.06970
Co2319     Co  0.36151302  0.36395996  0.13711240     0.73820
N2320       N  0.35782196  0.30227333  0.17188036    -0.47160
C2321       C  0.37502787  0.45130865  0.19923875     0.42310
N2322       N  0.34449642  0.40571257  0.11098839    -0.47150
Co2323     Co  0.34519838  0.34726784  0.19411289     0.73890
C2324       C  0.31462651  0.37309499  0.22994822    -0.07480
C2325       C  0.43527276  0.37261492  0.21478384    -0.07040
N2326       N  0.37444489  0.41245903  0.13374421    -0.26570
N2327       N  0.39572633  0.33730824  0.24407602    -0.47330
H2328       H  0.36874629  0.43325645  0.23360358     0.06320
C2329       C  0.31145591  0.37729308  0.13968705    -0.07460
Cl2330     Cl  0.37292742  0.37319126  0.17652960    -0.50460
C2331       C  0.36652521  0.29426819  0.15195778     0.42070
H2332       H  0.37686069  0.44920362  0.12744020     0.06280
N2333       N  0.30129410  0.36519980  0.17507118    -0.47170
C2334       C  0.36482262  0.16458941  0.29272227     0.41920
N2335       N  0.35742417  0.16007808  0.32816381     0.00810
C2336       C  0.35108344  0.25002515  0.40488724    -0.07060
H2337       H  0.42250408  0.25293926  0.35203993     0.06310
C2338       C  0.44413920  0.16815744  0.38001772    -0.07410
Co2339     Co  0.34930401  0.20505135  0.35021978     0.74180
N2340       N  0.39344459  0.22976468  0.35446003    -0.26590
Co2341     Co  0.39087013  0.21486608  0.38764209     0.74070
C2342       C  0.45485129  0.18945252  0.37301883     0.42030
N2343       N  0.40246713  0.13029118  0.36839666     0.00430
N2344       N  0.42068892  0.19678081  0.38284976     0.00540
N2345       N  0.32418221  0.24082676  0.37829279    -0.47440
H2346       H  0.36271575  0.20363294  0.29563990     0.06290
N2347       N  0.37660039  0.22513232  0.34006672     0.00820
N2348       N  0.38725104  0.19926177  0.41897660     0.00560
C2349       C  0.37680318  0.19435976  0.45316468     0.42170
N2350       N  0.38515550  0.12753488  0.35398900    -0.26050
C2351       C  0.30196099  0.19228053  0.36705768    -0.06970
N2352       N  0.36208159  0.14881274  0.30926667    -0.47150
N2353       N  0.38021263  0.21048571  0.43727111    -0.47380
C2354       C  0.29054958  0.17161785  0.37430072     0.41940
N2355       N  0.34282630  0.22788110  0.37639276     0.00810
N2356       N  0.35115270  0.12982312  0.39146781    -0.26070
N2357       N  0.35661870  0.18233909  0.32491015    -0.26560
N2358       N  0.36747894  0.13227955  0.40699582     0.00450
H2359       H  0.31922672  0.11087074  0.39038570     0.06340
H2360       H  0.38225558  0.15544871  0.45191224     0.06370
N2361       N  0.35900379  0.23265525  0.39151896    -0.26610
N2362       N  0.42285509  0.17432908  0.38590104    -0.26220
N2363       N  0.32501417  0.16332004  0.36578153     0.00810
C2364       C  0.39692142  0.24971661  0.32125822     0.42210
C2365       C  0.39147376  0.11294293  0.33726309    -0.07480
N2366       N  0.38909548  0.17679378  0.42243211    -0.26220
H2367       H  0.45127560  0.15102774  0.38088469     0.06360
N2368       N  0.37779133  0.23670604  0.32060991    -0.47450
H2369       H  0.38067501  0.10776021  0.32299146     0.06340
C2370       C  0.34192351  0.10983762  0.42279644     0.42040
C2371       C  0.36207296  0.18683511  0.30324546    -0.06970
Co2372     Co  0.35414411  0.14501009  0.35941620     0.73820
N2373       N  0.42095298  0.11792866  0.36219525    -0.47160
C2374       C  0.32761400  0.25521151  0.39602284     0.42310
N2375       N  0.30593655  0.15444159  0.37377092    -0.47150
Co2376     Co  0.39641551  0.15318208  0.39679225     0.73890
C2377       C  0.38308584  0.17221632  0.44401465    -0.07480
C2378       C  0.40747800  0.24525661  0.34417533    -0.07040
N2379       N  0.32306177  0.18540710  0.36162008    -0.26570
N2380       N  0.43966376  0.20649535  0.37545078    -0.47330
H2381       H  0.36074334  0.25855219  0.41832646     0.06320
C2382       C  0.33451703  0.11614318  0.39967559    -0.07460
Cl2383     Cl  0.37282931  0.17952519  0.37360995    -0.50460
C2384       C  0.41531039  0.10624725  0.34250376     0.42070
H2385       H  0.29496257  0.20931611  0.36466547     0.06280
N2386       N  0.36279097  0.12037055  0.42619331    -0.47170
C2387       C  0.15478148  0.07526197  0.38912956     0.41920
N2388       N  0.14220497  0.10566688  0.37150838     0.00810
C2389       C  0.06321817  0.12586749  0.28496543    -0.07060
H2390       H  0.12776215  0.06253906  0.26630221     0.06310
C2391       C  0.18341623  0.12394111  0.26525753    -0.07410
Co2392     Co  0.10105844  0.10133239  0.34120926     0.74180
N2393       N  0.11640551  0.08267531  0.29521200    -0.26590
Co2394     Co  0.11431395  0.11480870  0.28127521     0.74070
C2395       C  0.17885187  0.10553376  0.24876934     0.42030
N2396       N  0.17665599  0.14143657  0.32356845     0.00430
N2397       N  0.14826401  0.11215047  0.26874329     0.00540
N2398       N  0.05562363  0.11749267  0.32233011    -0.47440
H2399       H  0.12526379  0.05365867  0.37292085     0.06290
N2400       N  0.11212240  0.07771915  0.31707824     0.00820
N2401       N  0.11303323  0.14849132  0.26805278     0.00560
C2402       C  0.10904201  0.17916481  0.24746805     0.42170
N2403       N  0.17098675  0.13512162  0.34451201    -0.26050
C2404       C  0.07068322  0.13384319  0.37608456    -0.06970
N2405       N  0.15840378  0.09784831  0.38573056    -0.47150
N2406       N  0.10099859  0.15745019  0.25056369    -0.47380
C2407       C  0.07699074  0.15400741  0.39054786     0.41940
N2408       N  0.07724424  0.11315485  0.31725351     0.00810
N2409       N  0.13573199  0.17044688  0.34385351    -0.26070
N2410       N  0.12741998  0.09000650  0.36488344    -0.26560
N2411       N  0.14082402  0.17533615  0.32230077     0.00450
H2412       H  0.12246838  0.19094995  0.37155809     0.06340
H2413       H  0.13939215  0.19656831  0.26596077     0.06370
N2414       N  0.08208550  0.11795050  0.29543371    -0.26610
N2415       N  0.16355823  0.12679563  0.27665341    -0.26220
N2416       N  0.10659916  0.14166418  0.37164803     0.00810
C2417       C  0.12307022  0.04662677  0.30200881     0.42210
C2418       C  0.18973194  0.12921612  0.35603902    -0.07480
N2419       N  0.12877265  0.16263833  0.27583337    -0.26220
H2420       H  0.19856273  0.13458608  0.26704092     0.06360
N2421       N  0.11582976  0.05600782  0.32178229    -0.47450
H2422       H  0.19038071  0.12442183  0.37395929     0.06340
C2423       C  0.12826528  0.20646561  0.33598147     0.42040
C2424       C  0.13379439  0.06996494  0.37519597    -0.06970
Co2425     Co  0.13924364  0.13850655  0.35813724     0.73820
N2426       N  0.19906460  0.14251296  0.32094268    -0.47160
C2427       C  0.04621777  0.12584823  0.30294861     0.42310
N2428       N  0.09961420  0.15729410  0.38664213    -0.47150
Co2429     Co  0.15300350  0.15190037  0.29972825     0.73890
C2430       C  0.12761653  0.18233449  0.26410568    -0.07480
C2431       C  0.12321095  0.06383505  0.28429212    -0.07040
N2432       N  0.09041154  0.12742699  0.36510918    -0.26570
N2433       N  0.15650998  0.09929334  0.25172142    -0.47330
H2434       H  0.06180502  0.13115797  0.26716405     0.06320
C2435       C  0.12724898  0.18913018  0.35370177    -0.07460
Cl2436     Cl  0.12677249  0.12640086  0.31992461    -0.50460
C2437       C  0.20820274  0.13581133  0.34118406     0.42070
H2438       H  0.05413467  0.12549075  0.37441137     0.06280
N2439       N  0.13666558  0.19680381  0.31690183    -0.47170
C2440       C  0.33099623  0.12754205  0.21120004     0.41920
N2441       N  0.33726406  0.13679891  0.17644825     0.00810
C2442       C  0.25113153  0.15158535  0.09555680    -0.07060
H2443       H  0.24244396  0.07931758  0.14360641     0.06310
C2444       C  0.32816851  0.05562784  0.12188578    -0.07410
Co2445     Co  0.29370060  0.14938768  0.15288882     0.74180
N2446       N  0.26725801  0.10709259  0.14446532    -0.26590
Co2447     Co  0.28398872  0.11060239  0.11237112     0.74070
C2448       C  0.30623239  0.04630911  0.12910591     0.42030
N2449       N  0.36752803  0.09415291  0.13509333     0.00430
N2450       N  0.30044419  0.07988443  0.11692519     0.00540
N2451       N  0.25951474  0.17707943  0.12365519    -0.47440
H2452       H  0.29198286  0.13155724  0.20704444     0.06290
N2453       N  0.27176910  0.12264949  0.16015545     0.00820
N2454       N  0.30114369  0.11488395  0.08178231     0.00560
C2455       C  0.30777470  0.12475822  0.04748784     0.42170
N2456       N  0.37023657  0.11041361  0.15049365    -0.26050
C2457       C  0.31068931  0.19755711  0.14089608    -0.06970
N2458       N  0.34753821  0.13008307  0.19538394    -0.47150
N2459       N  0.29093078  0.12244178  0.06296182    -0.47380
C2460       C  0.33259822  0.20716208  0.13398376     0.41940
N2461       N  0.27241257  0.15837463  0.12540912     0.00810
N2462       N  0.37076508  0.14618304  0.11499907    -0.26070
N2463       N  0.31480488  0.13863251  0.17881501    -0.26560
N2464       N  0.36796047  0.13123078  0.09831310     0.00450
H2465       H  0.39064782  0.17721659  0.11837913     0.06340
H2466       H  0.34655453  0.11724632  0.05055636     0.06370
N2467       N  0.26795954  0.14308574  0.10934869    -0.26610
N2468       N  0.32302509  0.07678029  0.11486966    -0.26220
N2469       N  0.33777186  0.17218643  0.14162641     0.00810
C2470       C  0.24548369  0.10222608  0.17605630     0.42210
C2471       C  0.38456533  0.10317688  0.16720100    -0.07480
N2472       N  0.32370626  0.11189383  0.07926744    -0.26220
H2473       H  0.34519683  0.04805207  0.12268424     0.06360
N2474       N  0.25916139  0.12057647  0.17893739    -0.47450
H2475       H  0.39016589  0.11317573  0.18185098     0.06340
C2476       C  0.39109163  0.15721380  0.08437256     0.42040
C2477       C  0.30912340  0.13156255  0.19981923    -0.06970
Co2478     Co  0.35411878  0.14186394  0.14631521     0.73820
N2479       N  0.37973268  0.07534007  0.14062333    -0.47160
C2480       C  0.24565173  0.17434400  0.10514589     0.42310
N2481       N  0.34853534  0.19064885  0.13488313    -0.47150
Co2482     Co  0.34580678  0.10262955  0.10597691     0.73890
C2483       C  0.32939547  0.11753582  0.05778128    -0.07480
C2484       C  0.25058963  0.09321562  0.15284493    -0.07040
N2485       N  0.31558784  0.17558829  0.14502611    -0.26570
N2486       N  0.28972790  0.06179179  0.12503244    -0.47330
H2487       H  0.24286977  0.14252223  0.08155670     0.06320
C2488       C  0.38512595  0.16278876  0.10808245    -0.07460
Cl2489     Cl  0.31939017  0.12610361  0.12919407    -0.50460
C2490       C  0.39085737  0.07982937  0.16099532     0.42070
H2491       H  0.29393827  0.20563202  0.14228482     0.06280
N2492       N  0.37984793  0.13714647  0.07946131    -0.47170
C2493       C  0.07728910  0.38964771  0.15584414     0.41920
N2494       N  0.10732327  0.37138063  0.14337125     0.00810
C2495       C  0.12486182  0.28769673  0.06164780    -0.07060
H2496       H  0.06594277  0.26676259  0.12991580     0.06310
C2497       C  0.13222841  0.26426513  0.17971164    -0.07410
Co2498     Co  0.10126878  0.34233507  0.10136357     0.74180
N2499       N  0.08449488  0.29605332  0.11727748    -0.26590
Co2500     Co  0.11660698  0.28282593  0.11251776     0.74070
C2501       C  0.11312158  0.24827579  0.17661392     0.42030
N2502       N  0.14584561  0.32213166  0.17359299     0.00430
N2503       N  0.11691031  0.26898826  0.14603513     0.00540
N2504       N  0.11538258  0.32490279  0.05473875    -0.47440
H2505       H  0.05490297  0.37449738  0.12639453     0.06290
N2506       N  0.07877661  0.31777097  0.11368240     0.00820
N2507       N  0.15054103  0.27029941  0.10857629     0.00560
C2508       C  0.18039485  0.24885285  0.10268751     0.42170
N2509       N  0.13978488  0.34359861  0.16980348    -0.26050
C2510       C  0.13218464  0.37827368  0.07012880    -0.06970
N2511       N  0.10002500  0.38589143  0.15943588    -0.47150
N2512       N  0.15802036  0.25235570  0.09649949    -0.47380
C2513       C  0.15199741  0.39356541  0.07601198     0.41940
N2514       N  0.11177130  0.31931915  0.07636013     0.00810
N2515       N  0.17219981  0.34594114  0.13182719    -0.26070
N2516       N  0.09118480  0.36521170  0.12870205    -0.26560
N2517       N  0.17898937  0.32498875  0.13697416     0.00450
H2518       H  0.18965095  0.37495402  0.11746413     0.06340
H2519       H  0.20083932  0.26712446  0.13124735     0.06370
N2520       N  0.11720806  0.29761806  0.08070242    -0.26610
N2521       N  0.13318148  0.27623457  0.16003368    -0.26220
N2522       N  0.14100369  0.37413473  0.10589615     0.00810
C2523       C  0.04885304  0.30202693  0.12709783     0.42210
C2524       C  0.13171580  0.35235462  0.18919187    -0.07480
N2525       N  0.16630751  0.27811495  0.12285988    -0.26220
H2526       H  0.14409785  0.26584248  0.19403421     0.06360
N2527       N  0.05728157  0.32200200  0.11932598    -0.47450
H2528       H  0.12588748  0.36975979  0.19182129     0.06340
C2529       C  0.20855930  0.34193903  0.12454172     0.42040
C2530       C  0.07134982  0.37591778  0.13511631    -0.06970
Co2531     Co  0.14057542  0.35905774  0.13831484     0.73820
N2532       N  0.14255124  0.31560464  0.19493600    -0.47160
C2533       C  0.12400880  0.30588352  0.04506255     0.42310
N2534       N  0.15585268  0.38978366  0.09856497    -0.47150
Co2535     Co  0.15678175  0.30063862  0.14881735     0.73890
C2536       C  0.18574388  0.26591940  0.12031332    -0.07480
C2537       C  0.06650035  0.28478432  0.12557655    -0.07040
N2538       N  0.12654159  0.36707024  0.08998137    -0.26570
N2539       N  0.10460138  0.25195383  0.15507297    -0.47330
H2540       H  0.13091948  0.27022969  0.05997066     0.06320
C2541       C  0.18937866  0.35705012  0.12203421    -0.07460
Cl2542     Cl  0.12873166  0.32117670  0.12513829    -0.50460
C2543       C  0.13358095  0.33382332  0.20553293     0.42070
H2544       H  0.12357033  0.37622271  0.05371649     0.06280
N2545       N  0.20109288  0.32191541  0.13316968    -0.47170
C2546       C  0.63789897  0.29405881  0.15824899     0.41920
N2547       N  0.64376718  0.32931028  0.15439945     0.00810
C2548       C  0.65388908  0.40250399  0.24650182    -0.07060
H2549       H  0.58779924  0.34935366  0.25274936     0.06310
C2550       C  0.55706421  0.37870203  0.17035096    -0.07410
Co2551     Co  0.65695409  0.34993204  0.19889229     0.74180
N2552       N  0.61427359  0.35195219  0.22665464    -0.26590
Co2553     Co  0.61415440  0.38539125  0.21271938     0.74070
C2554       C  0.54807653  0.37140082  0.19244521     0.42030
N2555       N  0.59590113  0.36846348  0.12844824     0.00430
N2556       N  0.58305102  0.38017135  0.19693963     0.00540
N2557       N  0.68221256  0.37823093  0.23560556    -0.47440
H2558       H  0.64889457  0.29386795  0.19622467     0.06290
N2559       N  0.63132297  0.33817520  0.22093427     0.00820
N2560       N  0.61521119  0.41736873  0.19818832     0.00560
C2561       C  0.62260829  0.45239049  0.19424954     0.42170
N2562       N  0.61340531  0.35488129  0.12397058    -0.26050
C2563       C  0.70301476  0.36749240  0.18004576    -0.06970
N2564       N  0.63695293  0.31118981  0.14311353    -0.47150
N2565       N  0.62168581  0.43559921  0.20981144    -0.47380
C2566       C  0.71105900  0.37618093  0.15780800     0.41940
N2567       N  0.66372060  0.37618092  0.22225749     0.00810
N2568       N  0.64642161  0.39252405  0.12497028    -0.26070
N2569       N  0.64900046  0.32490110  0.17604919    -0.26560
N2570       N  0.63078680  0.40808312  0.12970597     0.00450
H2571       H  0.67728598  0.39219277  0.10441743     0.06340
H2572       H  0.61424102  0.45235200  0.15559253     0.06370
N2573       N  0.64678887  0.38996721  0.22826923    -0.26610
N2574       N  0.57890251  0.38406385  0.17480560    -0.26220
N2575       N  0.67569984  0.36743421  0.15514629     0.00810
C2576       C  0.61335022  0.31936280  0.24727019     0.42210
C2577       C  0.60693549  0.33891778  0.10865190    -0.07480
N2578       N  0.61145448  0.42158149  0.17600155    -0.26220
H2579       H  0.54834846  0.38061628  0.15395742     0.06360
N2580       N  0.63166790  0.31888623  0.23299982    -0.47450
H2581       H  0.61815790  0.32592553  0.10150903     0.06340
C2582       C  0.65612303  0.42498263  0.10777052     0.42040
C2583       C  0.64607730  0.30267486  0.18005991    -0.06970
Co2584     Co  0.64521747  0.36057199  0.13953888     0.73820
N2585       N  0.57680493  0.36190419  0.11701154    -0.47160
C2586       C  0.67763975  0.39470315  0.25133605     0.42310
N2587       N  0.69285906  0.37651466  0.14389101    -0.47150
Co2588     Co  0.60333216  0.39637417  0.15205935     0.73890
C2589       C  0.61546387  0.44370514  0.17203011    -0.07480
C2590       C  0.60188367  0.34162474  0.24335315    -0.07040
N2591       N  0.68095068  0.36240694  0.17658789    -0.26570
N2592       N  0.56484665  0.37294568  0.20816753    -0.47330
H2593       H  0.64324440  0.41428495  0.25616996     0.06320
C2594       C  0.66242995  0.40121925  0.11099672    -0.07460
Cl2595     Cl  0.62977270  0.37314443  0.17585905    -0.50460
C2596       C  0.58239181  0.34290401  0.10412296     0.42070
H2597       H  0.71242567  0.36444452  0.19587236     0.06280
N2598       N  0.63593166  0.42821822  0.11971808    -0.47170
C2599       C  0.58455364  0.10686909  0.34504592     0.41920
N2600       N  0.61383162  0.12607908  0.35845235     0.00810
C2601       C  0.62310861  0.21698549  0.43355282    -0.07060
H2602       H  0.56571656  0.23016862  0.36412242     0.06310
C2603       C  0.63610463  0.23189599  0.31509921    -0.07410
Co2604     Co  0.60470546  0.15786859  0.39733761     0.74180
N2605       N  0.58630321  0.20222471  0.37719383    -0.26590
Co2606     Co  0.61788674  0.21719833  0.38225296     0.74070
C2607       C  0.61656409  0.24776641  0.31640443     0.42030
N2608       N  0.65262448  0.17420907  0.32628457     0.00430
N2609       N  0.61913127  0.22835776  0.34795819     0.00540
N2610       N  0.61474382  0.18022741  0.44328270    -0.47440
H2611       H  0.56041960  0.12382395  0.37186083     0.06290
N2612       N  0.58163542  0.18053509  0.38217647     0.00820
N2613       N  0.65105811  0.23128893  0.38727909     0.00560
C2614       C  0.68061856  0.25232121  0.39524955     0.42170
N2615       N  0.64616492  0.15330401  0.33191825    -0.26050
C2616       C  0.63462440  0.12423648  0.43215033    -0.06970
N2617       N  0.60746359  0.11072663  0.34268071    -0.47150
N2618       N  0.65784476  0.24917085  0.39984842    -0.47380
C2619       C  0.65599961  0.11034917  0.42863620     0.41940
N2620       N  0.61274956  0.18347548  0.42096560     0.00810
N2621       N  0.67832250  0.15520177  0.36979244    -0.26070
N2622       N  0.59676023  0.13287882  0.37156644    -0.26560
N2623       N  0.68352080  0.17667512  0.36511672     0.00450
H2624       H  0.69863933  0.12622498  0.37952992     0.06340
H2625       H  0.70300826  0.23317629  0.36886820     0.06370
N2626       N  0.61746824  0.20494635  0.41503864    -0.26610
N2627       N  0.63629080  0.22078552  0.33534216    -0.26220
N2628       N  0.64671801  0.12853566  0.39747586     0.00810
C2629       C  0.55036337  0.19433035  0.36908357     0.42210
C2630       C  0.63922933  0.14235970  0.31332655    -0.07480
N2631       N  0.66771532  0.22318463  0.37437779    -0.26220
H2632       H  0.64910270  0.23040683  0.30187484     0.06360
N2633       N  0.56017032  0.17518160  0.37744680    -0.47450
H2634       H  0.63366727  0.12475893  0.31231296     0.06340
C2635       C  0.71572584  0.16106880  0.37330811     0.42040
C2636       C  0.57741433  0.12170233  0.36454144    -0.06970
Co2637     Co  0.64660236  0.14051132  0.36410633     0.73820
N2638       N  0.65175996  0.17785718  0.30401282    -0.47160
C2639       C  0.62120475  0.20063758  0.45183761     0.42310
N2640       N  0.66203953  0.11424935  0.40662068    -0.47150
Co2641     Co  0.66055617  0.19857316  0.34995686     0.73890
C2642       C  0.68698404  0.23518377  0.37813988    -0.07480
C2643       C  0.56739186  0.21231748  0.36892132    -0.07040
N2644       N  0.63038029  0.13497675  0.41169397    -0.26570
N2645       N  0.60720083  0.24498903  0.33760616    -0.47330
H2646       H  0.62830413  0.23476532  0.43389077     0.06320
C2647       C  0.69732569  0.14448964  0.37650308    -0.07460
Cl2648     Cl  0.63228803  0.17863306  0.37362081    -0.50460
C2649       C  0.64355692  0.15831379  0.29519994     0.42070
H2650       H  0.62423525  0.12582858  0.44749033     0.06280
N2651       N  0.70566597  0.18101232  0.36754335    -0.47170
C2652       C  0.82881595  0.36712321  0.29006531     0.41920
N2653       N  0.83754719  0.35663029  0.32411909     0.00810
C2654       C  0.75331548  0.34706788  0.40752666    -0.07060
H2655       H  0.74312156  0.41636715  0.35611003     0.06310
C2656       C  0.82791992  0.44291764  0.37595659    -0.07410
Co2657     Co  0.79470549  0.34569236  0.34982149     0.74180
N2658       N  0.76796257  0.38845781  0.35603239    -0.26590
Co2659     Co  0.78559207  0.38701369  0.38791165     0.74070
C2660       C  0.80523314  0.45190516  0.36993113     0.42030
N2661       N  0.86832567  0.40232130  0.36305990     0.00430
N2662       N  0.80125913  0.41778438  0.38133950     0.00540
N2663       N  0.76129210  0.32017520  0.38076278    -0.47440
H2664       H  0.79034546  0.36242858  0.29622154     0.06290
N2665       N  0.77198250  0.37198376  0.34115505     0.00820
N2666       N  0.80349891  0.38509863  0.41849299     0.00560
C2667       C  0.81050115  0.38184793  0.45426692     0.42170
N2668       N  0.87127672  0.38538615  0.34839324    -0.26050
C2669       C  0.81159156  0.29984105  0.36833014    -0.06970
N2670       N  0.84650952  0.36401023  0.30479398    -0.47150
N2671       N  0.79383545  0.38011831  0.43829849    -0.47380
C2672       C  0.83333101  0.28999099  0.37626451     0.41940
N2673       N  0.77424081  0.33859202  0.37805503     0.00810
N2674       N  0.87234305  0.35126208  0.38606323    -0.26070
N2675       N  0.81500051  0.35437000  0.32273502    -0.26560
N2676       N  0.86927565  0.36690990  0.40210157     0.00450
H2677       H  0.89203100  0.31989583  0.38440011     0.06340
H2678       H  0.84862337  0.39216124  0.44941673     0.06370
N2679       N  0.77001741  0.35473781  0.39326914    -0.26610
N2680       N  0.82383171  0.42141145  0.38272583    -0.26220
N2681       N  0.83946848  0.32303868  0.36130403     0.00810
C2682       C  0.74486460  0.39164322  0.32502022     0.42210
C2683       C  0.88571851  0.39226800  0.33160337    -0.07480
N2684       N  0.82581929  0.38941736  0.42047466    -0.26220
H2685       H  0.84460468  0.45111537  0.37517138     0.06360
N2686       N  0.75850183  0.37304508  0.32270950    -0.47450
H2687       H  0.89163074  0.38178569  0.31744482     0.06340
C2688       C  0.89152725  0.34065656  0.41787104     0.42040
C2689       C  0.80796579  0.36129145  0.30207152    -0.06970
Co2690     Co  0.85543683  0.35360843  0.35441037     0.73820
N2691       N  0.88026701  0.42101631  0.35697965    -0.47160
C2692       C  0.74781136  0.32379829  0.39921432     0.42310
N2693       N  0.84977466  0.30534186  0.37094418    -0.47150
Co2694     Co  0.84715405  0.39578479  0.39275224     0.73890
C2695       C  0.83164127  0.38854446  0.44264540    -0.07480
C2696       C  0.75093329  0.40192625  0.34742490    -0.07040
N2697       N  0.81704369  0.32019980  0.35957747    -0.26570
N2698       N  0.78955650  0.43573124  0.37400670    -0.47330
H2699       H  0.74498008  0.35700907  0.42083613     0.06320
C2700       C  0.88636947  0.33466624  0.39406533    -0.07460
Cl2701     Cl  0.82071942  0.37061782  0.37133764    -0.50460
C2702       C  0.89170053  0.41607729  0.33700918     0.42070
H2703       H  0.79428069  0.29354816  0.36995630     0.06280
N2704       N  0.88058624  0.36127872  0.42157721    -0.47170
C2705       C  0.60841353  0.07482911  0.15417081     0.41920
N2706       N  0.62628243  0.10491371  0.14167869     0.00810
C2707       C  0.71468304  0.12138012  0.06413879    -0.07060
H2708       H  0.73156378  0.06493486  0.13591299     0.06310
C2709       C  0.73251289  0.13056687  0.18278547    -0.07410
Co2710     Co  0.65722670  0.09912879  0.10106852     0.74180
N2711       N  0.70318183  0.08268139  0.11969625    -0.26590
Co2712     Co  0.71631443  0.11485694  0.11527427     0.74070
C2713       C  0.74962222  0.11233794  0.17977417     0.42030
N2714       N  0.67327290  0.14286708  0.17451877     0.00430
N2715       N  0.72877051  0.11528027  0.14912462     0.00540
N2716       N  0.67772589  0.11210988  0.05481902    -0.47440
H2717       H  0.62520464  0.05254552  0.12565918     0.06290
N2718       N  0.68168714  0.07675267  0.11467854     0.00820
N2719       N  0.72860158  0.14893238  0.11208066     0.00560
C2720       C  0.75067018  0.17876478  0.10906619     0.42170
N2721       N  0.65192660  0.13693784  0.16961276    -0.26050
C2722       C  0.62048368  0.12988730  0.06922618    -0.06970
N2723       N  0.61166848  0.09746276  0.15755171    -0.47150
N2724       N  0.74790042  0.15657774  0.10228649    -0.47380
C2725       C  0.60505179  0.14993017  0.07502521     0.41940
N2726       N  0.68165403  0.10954551  0.07703187     0.00810
N2727       N  0.65067203  0.17010961  0.13260946    -0.26070
N2728       N  0.63326383  0.08890043  0.12740648    -0.26560
N2729       N  0.67167648  0.17656500  0.13817673     0.00450
H2730       H  0.62172512  0.18795160  0.11769984     0.06340
H2731       H  0.72926062  0.19839689  0.13577108     0.06370
N2732       N  0.70316388  0.11498048  0.08271424    -0.26610
N2733       N  0.72057716  0.13111438  0.16295058    -0.26220
N2734       N  0.62532697  0.13889901  0.10464951     0.00810
C2735       C  0.69654400  0.04767275  0.13107749     0.42210
C2736       C  0.64195237  0.12892874  0.18842460    -0.07480
N2737       N  0.71935088  0.16434812  0.12577828    -0.26220
H2738       H  0.73052768  0.14245958  0.19691904     0.06360
N2739       N  0.67716855  0.05561178  0.12105090    -0.47450
H2740       H  0.62425312  0.12348818  0.19010665     0.06340
C2741       C  0.65505376  0.20646514  0.12558860     0.42040
C2742       C  0.62286317  0.06901671  0.13386322    -0.06970
Co2743     Co  0.63831430  0.13810530  0.13756365     0.73820
N2744       N  0.67860404  0.13945811  0.19618270    -0.47160
C2745       C  0.69787616  0.11940145  0.04614606     0.42310
N2746       N  0.60971877  0.15374902  0.09731478    -0.47150
Co2747     Co  0.69590867  0.15432571  0.15076432     0.73890
C2748       C  0.73147428  0.18379267  0.12452179    -0.07480
C2749       C  0.71391988  0.06517129  0.12981985    -0.07040
N2750       N  0.63232763  0.12437637  0.08891263    -0.26570
N2751       N  0.74649747  0.10386324  0.15825979    -0.47330
H2752       H  0.73240518  0.12708971  0.06358140     0.06320
C2753       C  0.63947604  0.18765730  0.12328622    -0.07460
Cl2754     Cl  0.67700921  0.12658298  0.12597935    -0.50460
C2755       C  0.65964154  0.13062219  0.20569409     0.42070
H2756       H  0.62193194  0.12068509  0.05316159     0.06280
N2757       N  0.67496543  0.19850702  0.13451639    -0.47170
C2758       C  0.91715021  0.15749020  0.39618592     0.41920
N2759       N  0.88772273  0.14664095  0.37484847     0.00810
C2760       C  0.87563669  0.06732262  0.28753624    -0.07060
H2761       H  0.93597235  0.13511864  0.27274514     0.06310
C2762       C  0.87394976  0.18690786  0.26632142    -0.07410
Co2763     Co  0.89467184  0.10582188  0.34505888     0.74180
N2764       N  0.91528689  0.12191342  0.30038248    -0.26590
Co2765     Co  0.88372284  0.11875846  0.28467714     0.74070
C2766       C  0.89299435  0.18221775  0.25063060     0.42030
N2767       N  0.85556346  0.18122377  0.32389608     0.00430
N2768       N  0.88635131  0.15224268  0.27132060     0.00540
N2769       N  0.88460018  0.05939557  0.32468447    -0.47440
H2770       H  0.93842658  0.12681037  0.38100987     0.06290
N2771       N  0.91958295  0.11750949  0.32240974     0.00820
N2772       N  0.85048204  0.11686417  0.27009140     0.00560
C2773       C  0.82052142  0.11172815  0.24872906     0.42170
N2774       N  0.85930703  0.17583636  0.34562319    -0.26050
C2775       C  0.86127443  0.07548441  0.37827956    -0.06970
N2776       N  0.89487823  0.16183233  0.39028131    -0.47150
N2777       N  0.84231834  0.10404053  0.25291579    -0.47380
C2778       C  0.83978014  0.08062091  0.39114836     0.41940
N2779       N  0.88585069  0.08151076  0.32049005     0.00810
N2780       N  0.82345424  0.14096678  0.34345977    -0.26070
N2781       N  0.90367770  0.13172050  0.36940339    -0.26560
N2782       N  0.81977951  0.14609208  0.32164198     0.00450
H2783       H  0.80268887  0.12445846  0.36892270     0.06340
H2784       H  0.80167863  0.14226437  0.26504773     0.06370
N2785       N  0.88113594  0.08647764  0.29868273    -0.26610
N2786       N  0.87114758  0.16744791  0.27822361    -0.26220
N2787       N  0.85161325  0.11077843  0.37275549     0.00810
C2788       C  0.95079272  0.13056290  0.30897887     0.42210
C2789       C  0.86689247  0.19415315  0.35654700    -0.07480
N2790       N  0.83570328  0.13267945  0.27660840    -0.26220
H2791       H  0.86283201  0.20180527  0.26720085     0.06360
N2792       N  0.94106254  0.12211270  0.32814478    -0.47450
H2793       H  0.87032633  0.19527578  0.37478222     0.06340
C2794       C  0.78915930  0.12884561  0.33193883     0.42040
C2795       C  0.92284104  0.13682431  0.38188843    -0.06970
Co2796     Co  0.85499561  0.14403272  0.35957411     0.73820
N2797       N  0.85940918  0.20307933  0.31954561    -0.47160
C2798       C  0.87821110  0.04955972  0.30475818     0.42310
N2799       N  0.83548727  0.10304657  0.38701403    -0.47150
Co2800     Co  0.84513675  0.15744974  0.30027380     0.73890
C2801       C  0.81635284  0.13081509  0.26422449    -0.07480
C2802       C  0.93417759  0.13009441  0.29057068    -0.07040
N2803       N  0.86707857  0.09518237  0.36723182    -0.26570
N2804       N  0.89960164  0.16016168  0.25441624    -0.47330
H2805       H  0.87098751  0.06614880  0.26953259     0.06320
C2806       C  0.80481288  0.13060857  0.35155465    -0.07460
Cl2807     Cl  0.86969660  0.13122804  0.32237230    -0.50460
C2808       C  0.86634218  0.21226537  0.33962559     0.42070
H2809       H  0.87111774  0.05974301  0.37793125     0.06280
N2810       N  0.79937960  0.13940798  0.31420912    -0.47170
C2811       C  0.87166242  0.33849853  0.21072246     0.41920
N2812       N  0.86506863  0.34214985  0.17485707     0.00810
C2813       C  0.84644984  0.25119369  0.10090714    -0.07060
H2814       H  0.91924545  0.24312891  0.14448693     0.06310
C2815       C  0.94479708  0.32748026  0.11631557    -0.07410
Co2816     Co  0.85172928  0.29766610  0.15441224     0.74180
N2817       N  0.89310178  0.26976951  0.14576503    -0.26590
Co2818     Co  0.88825815  0.28479095  0.11292426     0.74070
C2819       C  0.95431863  0.30551068  0.12310222     0.42030
N2820       N  0.90732532  0.36853788  0.13041387     0.00430
N2821       N  0.91943588  0.30057186  0.11486443     0.00540
N2822       N  0.82238126  0.26194547  0.12932331    -0.47440
H2823       H  0.86936861  0.29935344  0.20882160     0.06290
N2824       N  0.87858502  0.27578706  0.16198681     0.00820
N2825       N  0.88269735  0.30040709  0.08171361     0.00560
C2826       C  0.87231150  0.30523406  0.04717516     0.42170
N2827       N  0.89158113  0.37245468  0.14616382    -0.26050
C2828       C  0.80351647  0.31411696  0.14218287    -0.06970
N2829       N  0.87018849  0.35371241  0.19346493    -0.47150
N2830       N  0.87498464  0.28932400  0.06354460    -0.47380
C2831       C  0.79371539  0.33525707  0.13358190     0.41940
N2832       N  0.84096978  0.27506986  0.12875953     0.00810
N2833       N  0.85421769  0.37227778  0.11158974    -0.26070
N2834       N  0.86351766  0.32002725  0.17871779    -0.26560
N2835       N  0.86863360  0.36824104  0.09467833     0.00450
H2836       H  0.82385867  0.39360903  0.11482859     0.06340
H2837       H  0.88068679  0.34367773  0.04777108     0.06370
N2838       N  0.85544033  0.26927050  0.11239865    -0.26610
N2839       N  0.92286660  0.32281427  0.11157197    -0.26220
N2840       N  0.82896410  0.34086889  0.14044117     0.00810
C2841       C  0.89830472  0.24881955  0.17792736     0.42210
C2842       C  0.90007456  0.38653105  0.16236501    -0.07480
N2843       N  0.88593170  0.32260525  0.07783151    -0.26220
H2844       H  0.95293904  0.34410173  0.11529693     0.06360
N2845       N  0.88084971  0.26371408  0.18111986    -0.47450
H2846       H  0.89088813  0.39258407  0.17735018     0.06340
C2847       C  0.84305420  0.39190491  0.08036340     0.42040
C2848       C  0.86964399  0.31591587  0.20044797    -0.06970
Co2849     Co  0.85949203  0.35710808  0.14368367     0.73820
N2850       N  0.92702679  0.37963092  0.13523864    -0.47160
C2851       C  0.82418438  0.24633712  0.11223588     0.42310
N2852       N  0.81037277  0.35097923  0.13267061    -0.47150
Co2853     Co  0.89705744  0.34574912  0.10271421     0.73890
C2854       C  0.87987381  0.32714361  0.05616496    -0.07480
C2855       C  0.90648585  0.25261286  0.15414686    -0.07040
N2856       N  0.82556027  0.31922926  0.14580315    -0.26570
N2857       N  0.93806289  0.28952978  0.12148565    -0.47330
H2858       H  0.85534450  0.24133096  0.08790598     0.06320
C2859       C  0.83778671  0.38698480  0.10441277    -0.07460
Cl2860     Cl  0.87421922  0.32130792  0.12830179    -0.50460
C2861       C  0.92365063  0.39138498  0.15542470     0.42070
H2862       H  0.79547825  0.29764751  0.14494583     0.06280
N2863       N  0.86268593  0.37971168  0.07550572    -0.47170
O2864       O  0.71609773  0.02252047  0.52749624    -0.80670
O2865       O  0.71284574  0.97674362  0.47185729    -0.80690
O2866       O  0.74056323  0.04886104  0.47882495    -0.80700
O2867       O  0.73847000  0.94818389  0.52133059    -0.80640
O2868       O  0.71383792  0.02337144  0.47434235    -0.80770
O2869       O  0.71412608  0.97564694  0.52736836    -0.80690
O2870       O  0.73831298  0.94950184  0.47390632    -0.80670
O2871       O  0.74333613  0.04750339  0.52470607    -0.80710
C2872       C  0.72255558  0.04292537  0.53010303     1.09020
C2873       C  0.71799351  0.95609992  0.46819611     1.08900
C2874       C  0.71965960  0.04415299  0.47354126     1.09040
C2875       C  0.71901492  0.95464469  0.52938478     1.08920
O2876       O  0.75957503  0.97291419  0.54883296    -0.80670
O2877       O  0.75859396  0.02393224  0.45001392    -0.80750
O2878       O  0.78845684  0.02210436  0.52186990    -0.80680
O2879       O  0.78499857  0.97107526  0.47495024    -0.80660
O2880       O  0.75923929  0.97751627  0.44847051    -0.80720
O2881       O  0.76347357  0.01964641  0.54951218    -0.80680
O2882       O  0.78498299  0.96890451  0.52214770    -0.80640
O2883       O  0.78590199  0.02380201  0.47533592    -0.80710
Co2884     Co  0.73882980  0.99790109  0.53472895     1.51530
Co2885     Co  0.73680487  0.00007947  0.46477986     1.51690
Co2886     Co  0.76393592  0.03206651  0.50008341     1.51570
Co2887     Co  0.76114522  0.96294119  0.49813214     1.51470
O2888       O  0.75001320  0.99809101  0.49945507    -1.42610
C2889       C  0.77930714  0.96555536  0.54281764     1.08950
C2890       C  0.77947006  0.02852084  0.45519086     1.09040
C2891       C  0.78397748  0.02456124  0.54288291     1.08970
C2892       C  0.77986904  0.97151334  0.45381654     1.08950
C2893       C  0.79484651  0.03724125  0.41456262    -0.02380
C2894       C  0.79560565  0.04109907  0.43867251     0.07300
C2895       C  0.81155544  0.05784759  0.44681344    -0.02490
C2896       C  0.82633508  0.06986443  0.43142224    -0.02500
C2897       C  0.82553334  0.06593176  0.40743334     0.07430
C2898       C  0.80925006  0.04976761  0.39922791    -0.02690
Br2899     Br  0.80497316  0.04588059  0.36669505    -0.01240
Br2900     Br  0.77434035  0.01438316  0.40206177    -0.01310
Br2901     Br  0.84759749  0.09245028  0.44321652    -0.01270
Br2902     Br  0.81234619  0.06619120  0.47895764    -0.01260
C2903       C  0.89788741  0.19062385  0.20800887    -0.02380
C2904       C  0.90017831  0.19751373  0.23126357     0.07300
C2905       C  0.90612012  0.22046710  0.23607294    -0.02490
C2906       C  0.90767743  0.23673853  0.21815379    -0.02500
C2907       C  0.90335691  0.23036759  0.19509040     0.07430
C2908       C  0.89934219  0.20701181  0.18999572    -0.02690
Br2909     Br  0.89328250  0.19774560  0.15869162    -0.01240
Br2910     Br  0.89054966  0.15921717  0.20078898    -0.01310
Br2911     Br  0.91494985  0.26823697  0.22533656    -0.01270
Br2912     Br  0.91181813  0.22980322  0.26747557    -0.01260
C2913       C  0.79225953  0.10874630  0.18961970    -0.02380
C2914       C  0.76884265  0.10661655  0.19608803     0.07300
C2915       C  0.76368025  0.10116181  0.21916400    -0.02490
C2916       C  0.78130182  0.09994749  0.23590048    -0.02500
C2917       C  0.80431054  0.10486933  0.23000321     0.07430
C2918       C  0.80993598  0.10798351  0.20657848    -0.02690
Br2919     Br  0.84159236  0.11287326  0.19794867    -0.01240
Br2920     Br  0.80012805  0.11474604  0.15796971    -0.01310
Br2921     Br  0.77400402  0.09147876  0.26719752    -0.01270
Br2922     Br  0.73232139  0.09546549  0.22805726    -0.01260
C2923       C  0.78366893  0.19776535  0.13008737    -0.02380
C2924       C  0.77294177  0.19193901  0.10898775     0.07300
C2925       C  0.78223003  0.20090562  0.08842493    -0.02490
C2926       C  0.79999412  0.21768503  0.08914130    -0.02500
C2927       C  0.80871201  0.22563861  0.11052655     0.07430
C2928       C  0.80124757  0.21449798  0.13089304    -0.02690
Br2929     Br  0.81557034  0.22129927  0.16024431    -0.01240
Br2930     Br  0.77502863  0.18204199  0.15809711    -0.01310
Br2931     Br  0.81127578  0.23054916  0.06077674    -0.01270
Br2932     Br  0.77001983  0.19064101  0.05931889    -0.01260
C2933       C  0.85239371  0.37626678  0.25776416    -0.02380
C2934       C  0.83293545  0.36466043  0.26578926     0.07300
C2935       C  0.82454708  0.34503857  0.25434837    -0.02490
C2936       C  0.83756541  0.33545445  0.23669203    -0.02500
C2937       C  0.85947126  0.34510818  0.23136611     0.07430
C2938       C  0.86650888  0.36577412  0.24167684    -0.02690
Br2939     Br  0.89557011  0.37991413  0.23392791    -0.01240
Br2940     Br  0.86077257  0.40553831  0.27086237    -0.01310
Br2941     Br  0.82359318  0.30986059  0.22026659    -0.01270
Br2942     Br  0.79601649  0.32989576  0.26293146    -0.01260
C2943       C  0.86255242  0.26043945  0.37913322    -0.02380
C2944       C  0.83891127  0.26563835  0.37787431     0.07300
C2945       C  0.82410238  0.25057497  0.36630905    -0.02490
C2946       C  0.83321280  0.23584556  0.34985479    -0.02500
C2947       C  0.85747224  0.23359176  0.34808525     0.07430
C2948       C  0.87211142  0.24550363  0.36315923    -0.02690
Br2949     Br  0.90509227  0.24033674  0.36263376    -0.01240
Br2950     Br  0.88174005  0.27440537  0.40211885    -0.01310
Br2951     Br  0.81196148  0.21795657  0.33139294    -0.01270
Br2952     Br  0.79211206  0.24806402  0.37484724    -0.01260
C2953       C  0.74667970  0.13379125  0.36988359    -0.02380
C2954       C  0.73493425  0.15239573  0.36001098     0.07300
C2955       C  0.73595879  0.15599505  0.33570612    -0.02490
C2956       C  0.75077010  0.14226422  0.32263816    -0.02500
C2957       C  0.76434165  0.12579557  0.33393174     0.07430
C2958       C  0.75753650  0.11824393  0.35560807    -0.02690
Br2959     Br  0.76754718  0.08922792  0.36715120    -0.01240
Br2960     Br  0.74853283  0.12991188  0.40268512    -0.01310
Br2961     Br  0.75351043  0.14656842  0.28980719    -0.01270
Br2962     Br  0.71807808  0.17904097  0.31944214    -0.01260
C2963       C  0.66138925  0.12271812  0.24607469    -0.02380
C2964       C  0.65413405  0.13700634  0.22830438     0.07300
C2965       C  0.64474758  0.15898145  0.23212982    -0.02490
C2966       C  0.64033381  0.16566621  0.25445732    -0.02500
C2967       C  0.64804608  0.15149329  0.27233376     0.07430
C2968       C  0.66019281  0.13084113  0.26828557    -0.02690
Br2969     Br  0.67807212  0.11503761  0.29177340    -0.01240
Br2970     Br  0.67332930  0.09243947  0.23992321    -0.01310
Br2971     Br  0.62407732  0.19411591  0.26037418    -0.01270
Br2972     Br  0.63956402  0.18067707  0.20740087    -0.01260
C2973       C  0.71016052  0.08406739  0.45608544    -0.02380
C2974       C  0.70253339  0.06247422  0.46473704     0.07300
C2975       C  0.67818173  0.05833724  0.46381550    -0.02490
C2976       C  0.66273032  0.07417731  0.45293369    -0.02500
C2977       C  0.67060543  0.09541356  0.44446764     0.07430
C2978       C  0.69415623  0.10062259  0.44756792    -0.02690
Br2979     Br  0.70404927  0.13146170  0.44119901    -0.01240
Br2980     Br  0.74261384  0.09102606  0.45329618    -0.01310
Br2981     Br  0.63073593  0.06634611  0.44849487    -0.01270
Br2982     Br  0.66503681  0.03116089  0.47748344    -0.01260
C2983       C  0.68903273  0.29493587  0.39867804    -0.02380
C2984       C  0.69566159  0.27186627  0.40254345     0.07300
C2985       C  0.71840261  0.26726455  0.41019051    -0.02490
C2986       C  0.73477646  0.28506542  0.41173274    -0.02500
C2987       C  0.72888453  0.30762371  0.40527404     0.07430
C2988       C  0.70566042  0.31270515  0.39982796    -0.02690
Br2989     Br  0.69704850  0.34366811  0.39197315    -0.01240
Br2990     Br  0.65777583  0.30216056  0.38978263    -0.01310
Br2991     Br  0.76571038  0.27865409  0.42233996    -0.01270
Br2992     Br  0.72740910  0.23636300  0.41822995    -0.01260
C2993       C  0.75186360  0.37066905  0.16359890    -0.02380
C2994       C  0.73300311  0.36901994  0.14863830     0.07300
C2995       C  0.73427567  0.35551973  0.12810609    -0.02490
C2996       C  0.75422195  0.34303397  0.12383368    -0.02500
C2997       C  0.77169369  0.34312112  0.14023944     0.07430
C2998       C  0.77044445  0.35621861  0.16050731    -0.02690
Br2999     Br  0.79435246  0.35492134  0.18390194    -0.01240
Br3000     Br  0.75260437  0.39313978  0.18790830    -0.01310
Br3001     Br  0.75813965  0.32577907  0.09559111    -0.01270
Br3002     Br  0.70985839  0.35265735  0.10532327    -0.01260
C3003       C  0.62945134  0.23281507  0.14716858    -0.02380
C3004       C  0.64768283  0.22915417  0.13117951     0.07300
C3005       C  0.66265408  0.24681055  0.12474359    -0.02490
C3006       C  0.66045116  0.26793379  0.13519925    -0.02500
C3007       C  0.64197587  0.27159842  0.15035070     0.07430
C3008       C  0.62640311  0.25454251  0.15628152    -0.02690
Br3009     Br  0.60144837  0.26111116  0.17744723    -0.01240
Br3010     Br  0.60958142  0.20895097  0.15913777    -0.01310
Br3011     Br  0.68374073  0.29114327  0.13000916    -0.01270
Br3012     Br  0.68697674  0.24170026  0.10253223    -0.01260
C3013       C  0.62785745  0.30404771  0.28514585    -0.02380
C3014       C  0.61122448  0.30345451  0.26732870     0.07300
C3015       C  0.59462308  0.28579766  0.26734192    -0.02490
C3016       C  0.59551919  0.26819897  0.28418220    -0.02500
C3017       C  0.61300809  0.26811812  0.30116069     0.07430
C3018       C  0.62870419  0.28654659  0.30197530    -0.02690
Br3019     Br  0.65180559  0.28753934  0.32595181    -0.01240
Br3020     Br  0.65001310  0.32861314  0.28612888    -0.01310
Br3021     Br  0.57358862  0.24346296  0.28331940    -0.01270
Br3022     Br  0.57155898  0.28497978  0.24340918    -0.01260
C3023       C  0.71658758  0.40487881  0.26728910    -0.02380
C3024       C  0.69329171  0.39940839  0.27147251     0.07300
C3025       C  0.68635190  0.39558689  0.29451981    -0.02490
C3026       C  0.70298789  0.39489412  0.31254769    -0.02500
C3027       C  0.72666610  0.39788324  0.30773893     0.07430
C3028       C  0.73321529  0.40367952  0.28510969    -0.02690
Br3029     Br  0.76522935  0.40964473  0.27842065    -0.01240
Br3030     Br  0.72547395  0.41498510  0.23708356    -0.01310
Br3031     Br  0.69355406  0.38807519  0.34356831    -0.01270
Br3032     Br  0.65440183  0.39000959  0.30152047    -0.01260
C3033       C  0.98853611  0.29272305  0.14390538    -0.02380
C3034       C  0.97809680  0.29976579  0.12325205     0.07300
C3035       C  0.99050907  0.30211492  0.10273611    -0.02490
C3036       C  0.01428739  0.30048959  0.10362144    -0.02500
C3037       C  0.02498677  0.29692768  0.12508326     0.07430
C3038       C  0.01246745  0.29139804  0.14486784    -0.02690
Br3039     Br  0.02810785  0.28386740  0.17328666    -0.01240
Br3040     Br  0.97024745  0.28661643  0.17091756    -0.01310
Br3041     Br  0.03207589  0.30413559  0.07571322    -0.01270
Br3042     Br  0.97514228  0.30815260  0.07369236    -0.01260
C3043       C  0.20387284  0.18728932  0.10136091    -0.02380
C3044       C  0.22766181  0.19159852  0.09848688     0.07300
C3045       C  0.23465702  0.21389450  0.09253356    -0.02490
C3046       C  0.21863906  0.23210960  0.09170136    -0.02500
C3047       C  0.19528020  0.22847872  0.09727181     0.07430
C3048       C  0.18770098  0.20566579  0.10079332    -0.02690
Br3049     Br  0.15556916  0.19955888  0.10636954    -0.01240
Br3050     Br  0.19366659  0.15651508  0.10765231    -0.01310
Br3051     Br  0.22871218  0.26215674  0.08245162    -0.01270
Br3052     Br  0.26648903  0.21940467  0.08555061    -0.01260
C3053       C  0.00931566  0.10661104  0.30112432    -0.02380
C3054       C  0.02189878  0.12705980  0.29971370     0.07300
C3055       C  0.01115740  0.14858816  0.29893438    -0.02490
C3056       C  0.98732132  0.14979449  0.30145815    -0.02500
C3057       C  0.97499488  0.12945099  0.30490842     0.07430
C3058       C  0.98559108  0.10779625  0.30376310    -0.02690
Br3059     Br  0.96780480  0.07984909  0.30592847    -0.01240
Br3060     Br  0.02466992  0.07712197  0.30024185    -0.01310
Br3061     Br  0.97168477  0.17904891  0.30127858    -0.01270
Br3062     Br  0.02924019  0.17616014  0.29604065    -0.01260
C3063       C  0.10580670  0.20659623  0.18756910    -0.02380
C3064       C  0.10607976  0.23012766  0.19350782     0.07300
C3065       C  0.10235683  0.23624404  0.21671418    -0.02490
C3066       C  0.10093517  0.21926288  0.23397745    -0.02500
C3067       C  0.10351120  0.19580241  0.22847652     0.07430
C3068       C  0.10461389  0.18949504  0.20498503    -0.02690
Br3069     Br  0.10628595  0.15757207  0.19661722    -0.01240
Br3070     Br  0.10887740  0.19762572  0.15580952    -0.01310
Br3071     Br  0.09528889  0.22829453  0.26542000    -0.01270
Br3072     Br  0.09903548  0.26810809  0.22502069    -0.01260
C3073       C  0.21767775  0.09327845  0.23417764    -0.02380
C3074       C  0.19441143  0.09875510  0.22938857     0.07300
C3075       C  0.18726254  0.10051266  0.20610213    -0.02490
C3076       C  0.20369009  0.09922292  0.18810026    -0.02500
C3077       C  0.22735683  0.09630012  0.19322716     0.07430
C3078       C  0.23405733  0.09234375  0.21629055    -0.02690
Br3079     Br  0.26606091  0.08628750  0.22348578    -0.01240
Br3080     Br  0.22714924  0.08676710  0.26539518    -0.01310
Br3081     Br  0.19399330  0.10367919  0.15661999    -0.01270
Br3082     Br  0.15539203  0.10671156  0.19869214    -0.01260
C3083       C  0.51310500  0.20462281  0.35197256    -0.02380
C3084       C  0.52608108  0.19815965  0.37132614     0.07300
C3085       C  0.51556119  0.19261955  0.39240664    -0.02490
C3086       C  0.49181058  0.19012908  0.39308572    -0.02500
C3087       C  0.47904382  0.19378734  0.37281761     0.07430
C3088       C  0.48919918  0.20258399  0.35279680    -0.02690
Br3089     Br  0.47049923  0.21079172  0.32644810    -0.01240
Br3090     Br  0.52806480  0.21489506  0.32424286    -0.01310
Br3091     Br  0.47698341  0.18212619  0.42181852    -0.01270
Br3092     Br  0.53347475  0.18846009  0.42035438    -0.01260
C3093       C  0.22884682  0.15882637  0.37121619    -0.02380
C3094       C  0.22860363  0.14686206  0.34973866     0.07300
C3095       C  0.24774417  0.14718700  0.33507677    -0.02490
C3096       C  0.26740396  0.15846577  0.34213543    -0.02500
C3097       C  0.26857491  0.16679133  0.36489412     0.07430
C3098       C  0.24960277  0.16735617  0.37932120    -0.02690
Br3099     Br  0.25256460  0.17914775  0.41033359    -0.01240
Br3100     Br  0.20189333  0.16626326  0.38950521    -0.01310
Br3101     Br  0.29276897  0.16139584  0.32065991    -0.01270
Br3102     Br  0.24769320  0.13158352  0.30561901    -0.01260
C3103       C  0.32877678  0.15833951  0.24019531    -0.02380
C3104       C  0.33653071  0.13619475  0.23362062     0.07300
C3105       C  0.35545702  0.12576517  0.24457333    -0.02490
C3106       C  0.36730414  0.13770091  0.26148774    -0.02500
C3107       C  0.35820727  0.15848255  0.26970758     0.07430
C3108       C  0.33865910  0.16879275  0.25925741    -0.02690
Br3109     Br  0.32345939  0.19624836  0.27079291    -0.01240
Br3110     Br  0.30642588  0.17644903  0.22274528    -0.01310
Br3111     Br  0.39574284  0.12524282  0.27395818    -0.01270
Br3112     Br  0.36600160  0.09560859  0.23530512    -0.01260
C3113       C  0.48949862  0.39547471  0.19895080    -0.02380
C3114       C  0.47748738  0.37505039  0.20321923     0.07300
C3115       C  0.48894003  0.35458534  0.20885256    -0.02490
C3116       C  0.51283041  0.35372893  0.20674245    -0.02500
C3117       C  0.52442962  0.37326823  0.19894450     0.07430
C3118       C  0.51327584  0.39459067  0.19676147    -0.02690
Br3119     Br  0.53023338  0.42241101  0.19037816    -0.01240
Br3120     Br  0.47338247  0.42437752  0.19522803    -0.01310
Br3121     Br  0.52945428  0.32567554  0.21282250    -0.01270
Br3122     Br  0.47191739  0.32745490  0.21718833    -0.01260
C3123       C  0.33758890  0.24631635  0.12110901    -0.02380
C3124       C  0.33964779  0.22998442  0.13852333     0.07300
C3125       C  0.35284930  0.23387341  0.15847786    -0.02490
C3126       C  0.36516492  0.25403287  0.16025539    -0.02500
C3127       C  0.36112238  0.27152772  0.14427397     0.07430
C3128       C  0.34743513  0.26774586  0.12429753    -0.02690
Br3129     Br  0.34046627  0.29086805  0.10133975    -0.01240
Br3130     Br  0.32159766  0.23914382  0.09286648    -0.01310
Br3131     Br  0.38824770  0.25759615  0.18396334    -0.01270
Br3132     Br  0.35386816  0.21193051  0.18354210    -0.01260
C3133       C  0.23055791  0.36881398  0.14908434    -0.02380
C3134       C  0.22992833  0.35102923  0.13228936     0.07300
C3135       C  0.24989352  0.34049821  0.12426671    -0.02490
C3136       C  0.27076151  0.34719396  0.13337133    -0.02500
C3137       C  0.27146741  0.36684005  0.14756521     0.07430
C3138       C  0.25169032  0.37765870  0.15548274    -0.02690
Br3139     Br  0.25384031  0.40377126  0.17591706    -0.01240
Br3140     Br  0.20380254  0.38024373  0.16551555    -0.01310
Br3141     Br  0.29729348  0.32766367  0.12815322    -0.01270
Br3142     Br  0.24863569  0.31683421  0.10107495    -0.01260
C3143       C  0.38807126  0.27487052  0.26309508    -0.02380
C3144       C  0.39299466  0.29868900  0.26570992     0.07300
C3145       C  0.40450675  0.30533091  0.28651013    -0.02490
C3146       C  0.40762949  0.28935609  0.30492503    -0.02500
C3147       C  0.40188142  0.26605917  0.30187959     0.07430
C3148       C  0.39532328  0.25891842  0.27976283    -0.02690
Br3149     Br  0.39750297  0.22676450  0.27185177    -0.01240
Br3150     Br  0.36925737  0.26216485  0.23896184    -0.01310
Br3151     Br  0.41962924  0.29952873  0.33412595    -0.01270
Br3152     Br  0.41510392  0.33633240  0.29114629    -0.01260
C3153       C  0.12325051  0.33986201  0.24503197    -0.02380
C3154       C  0.14021574  0.33889570  0.22830461     0.07300
C3155       C  0.16287050  0.34638712  0.23217290    -0.02490
C3156       C  0.16786068  0.35768627  0.25242141    -0.02500
C3157       C  0.15131401  0.35789485  0.27001513     0.07430
C3158       C  0.12915740  0.34770664  0.26674402    -0.02690
Br3159     Br  0.10708290  0.34109691  0.29082010    -0.01240
Br3160     Br  0.09212109  0.33011928  0.23792418    -0.01310
Br3161     Br  0.19738571  0.37283099  0.25564079    -0.01270
Br3162     Br  0.18711692  0.34132436  0.20993448    -0.01260
C3163       C  0.16503116  0.25069058  0.36176570    -0.02380
C3164       C  0.15037390  0.26972212  0.35974045     0.07300
C3165       C  0.12945528  0.26846827  0.34683116    -0.02490
C3166       C  0.12154207  0.24715813  0.33998700    -0.02500
C3167       C  0.13628213  0.22849245  0.34216917     0.07430
C3168       C  0.15873173  0.23046650  0.35121096    -0.02690
Br3169     Br  0.18124927  0.20609890  0.34845346    -0.01240
Br3170     Br  0.19377557  0.25205547  0.37867080    -0.01310
Br3171     Br  0.09090724  0.24339463  0.32729646    -0.01270
Br3172     Br  0.11294694  0.29478813  0.33467984    -0.01260
C3173       C  0.26912798  0.28251829  0.40644473    -0.02380
C3174       C  0.27290755  0.30540631  0.39957387     0.07300
C3175       C  0.29599824  0.31279635  0.39674434    -0.02490
C3176       C  0.31452428  0.29677690  0.39750405    -0.02500
C3177       C  0.31025465  0.27335470  0.40188569     0.07430
C3178       C  0.28758082  0.26663490  0.40746198    -0.02690
Br3179     Br  0.28179978  0.23528007  0.41616762    -0.01240
Br3180     Br  0.23867220  0.27316029  0.41553650    -0.01310
Br3181     Br  0.34543891  0.30655888  0.39048536    -0.01270
Br3182     Br  0.30243598  0.34460424  0.39100128    -0.01260
C3183       C  0.30901169  0.38644682  0.29007157    -0.02380
C3184       C  0.30361914  0.39474324  0.26782667     0.07300
C3185       C  0.28180848  0.40487945  0.26394414    -0.02490
C3186       C  0.26489326  0.40486634  0.28140102    -0.02500
C3187       C  0.26953086  0.39463607  0.30292796     0.07430
C3188       C  0.29202771  0.38644392  0.30752805    -0.02690
Br3189     Br  0.29916954  0.37379751  0.33728394    -0.01240
Br3190     Br  0.33900489  0.37330087  0.29619298    -0.01310
Br3191     Br  0.23527225  0.41901039  0.27599597    -0.01270
Br3192     Br  0.27515960  0.41881427  0.23456639    -0.01260
C3193       C  0.86296381  0.98873735  0.31708080    -0.02380
C3194       C  0.87628048  0.97762728  0.30053145     0.07300
C3195       C  0.88678916  0.98980603  0.28253893    -0.02490
C3196       C  0.88637031  0.01376869  0.28296357    -0.02500
C3197       C  0.87583707  0.02500037  0.30174163     0.07430
C3198       C  0.86428746  0.01233143  0.31878453    -0.02690
Br3199     Br  0.85310452  0.02600745  0.34643371    -0.01240
Br3200     Br  0.84320584  0.97160678  0.33768351    -0.01310
Br3201     Br  0.90375461  0.03031775  0.26002327    -0.01270
Br3202     Br  0.90352569  0.97393206  0.25861509    -0.01260
C3203       C  0.83832467  0.95337562  0.42533341    -0.02380
C3204       C  0.83121718  0.94284395  0.40461765     0.07300
C3205       C  0.80765859  0.94496112  0.39853961    -0.02490
C3206       C  0.79103992  0.95381571  0.41424156    -0.02500
C3207       C  0.79772598  0.96344053  0.43579199     0.07430
C3208       C  0.82202235  0.96429793  0.44026258    -0.02690
Br3209     Br  0.83369421  0.98109607  0.46641557    -0.01240
Br3210     Br  0.87051399  0.95214637  0.43354274    -0.01310
Br3211     Br  0.75907381  0.95026032  0.40624422    -0.01270
Br3212     Br  0.79836936  0.93660067  0.36769269    -0.01260
C3213       C  0.87651275  0.78945107  0.19478919    -0.02380
C3214       C  0.89225273  0.77109010  0.19714050     0.07300
C3215       C  0.90744255  0.77073412  0.21618384    -0.02490
C3216       C  0.90612146  0.78796024  0.23329212    -0.02500
C3217       C  0.88944846  0.80556371  0.23157721     0.07430
C3218       C  0.87508174  0.80654842  0.21193398    -0.02690
Br3219     Br  0.85289110  0.83104100  0.20885347    -0.01240
Br3220     Br  0.85600442  0.79050104  0.16858870    -0.01310
Br3221     Br  0.92622678  0.78677193  0.25977973    -0.01270
Br3222     Br  0.92943550  0.74605507  0.21917517    -0.01260
C3223       C  0.70234601  0.98937231  0.10844915    -0.02380
C3224       C  0.69789104  0.97710455  0.12868888     0.07300
C3225       C  0.69808018  0.98753288  0.15041989    -0.02490
C3226       C  0.69969936  0.01131630  0.15163322    -0.02500
C3227       C  0.70166106  0.02376965  0.13110704     0.07430
C3228       C  0.70446125  0.01298395  0.10969050    -0.02690
Br3229     Br  0.70928243  0.03061735  0.08189297    -0.01240
Br3230     Br  0.70424952  0.97401660  0.07900927    -0.01310
Br3231     Br  0.69754095  0.02694961  0.18080415    -0.01270
Br3232     Br  0.69511778  0.96937264  0.17801846    -0.01260
C3233       C  0.76273623  0.78397609  0.10148024    -0.02380
C3234       C  0.76900108  0.80701470  0.10503927     0.07300
C3235       C  0.79269374  0.81279121  0.10548559    -0.02490
C3236       C  0.80977341  0.79533768  0.10483044    -0.02500
C3237       C  0.80322570  0.77201745  0.10386798     0.07430
C3238       C  0.77969467  0.76665060  0.10067971    -0.02690
Br3239     Br  0.77057840  0.73540375  0.09477115    -0.01240
Br3240     Br  0.73069014  0.77609710  0.09767379    -0.01310
Br3241     Br  0.84192706  0.80351531  0.10669149    -0.01270
Br3242     Br  0.80193232  0.84432318  0.10895286    -0.01260
C3243       C  0.79321098  0.89841788  0.18931585    -0.02380
C3244       C  0.76990081  0.90274227  0.19505674     0.07300
C3245       C  0.76473853  0.90986224  0.21763654    -0.02490
C3246       C  0.78203687  0.91032609  0.23484751    -0.02500
C3247       C  0.80510211  0.90447536  0.22960181     0.07430
C3248       C  0.81077285  0.89961160  0.20641722    -0.02690
Br3249     Br  0.84223772  0.89289277  0.19817387    -0.01240
Br3250     Br  0.80096177  0.88898837  0.15850069    -0.01310
Br3251     Br  0.77397165  0.91871224  0.26594851    -0.01270
Br3252     Br  0.73377897  0.91943866  0.22479832    -0.01260
C3253       C  0.60754874  0.51242913  0.20700687    -0.02380
C3254       C  0.62866768  0.52283548  0.20157946     0.07300
C3255       C  0.64872526  0.50998418  0.19770323    -0.02490
C3256       C  0.64715056  0.48617629  0.19699535    -0.02500
C3257       C  0.62552778  0.47595363  0.20008368     0.07430
C3258       C  0.60596274  0.48869235  0.20617096    -0.02690
Br3259     Br  0.57666376  0.47376298  0.21110693    -0.01240
Br3260     Br  0.58032784  0.53063429  0.21307168    -0.01310
Br3261     Br  0.67392217  0.46767111  0.19019715    -0.01270
Br3262     Br  0.67761131  0.52513470  0.19161148    -0.01260
C3263       C  0.62905154  0.74809176  0.16388667    -0.02380
C3264       C  0.63284201  0.72988274  0.14860927     0.07300
C3265       C  0.64523819  0.73317665  0.12771582    -0.02490
C3266       C  0.65491300  0.75448538  0.12335271    -0.02500
C3267       C  0.65361751  0.77134306  0.14023205     0.07430
C3268       C  0.64078390  0.76843187  0.16051923    -0.02690
Br3269     Br  0.63952873  0.79201686  0.18397927    -0.01240
Br3270     Br  0.60767465  0.74533444  0.18926234    -0.01310
Br3271     Br  0.66986473  0.76091490  0.09432614    -0.01270
Br3272     Br  0.65086445  0.70940661  0.10504090    -0.01260
C3273       C  0.74920756  0.63757916  0.16277373    -0.02380
C3274       C  0.72969291  0.63873455  0.14856445     0.07300
C3275       C  0.73035784  0.65023369  0.12679255    -0.02490
C3276       C  0.75103175  0.65959262  0.11950266    -0.02500
C3277       C  0.76976929  0.65904958  0.13439722     0.07430
C3278       C  0.76865040  0.64952210  0.15661032    -0.02690
Br3279     Br  0.79335349  0.65287937  0.17898051    -0.01240
Br3280     Br  0.75020611  0.61880377  0.19005501    -0.01310
Br3281     Br  0.75386668  0.67398404  0.08959515    -0.01270
Br3282     Br  0.70403857  0.65506764  0.10652270    -0.01260
C3283       C  0.74471126  0.84767195  0.38232683    -0.02380
C3284       C  0.73597245  0.82985997  0.36897095     0.07300
C3285       C  0.74577591  0.82422458  0.34752567    -0.02490
C3286       C  0.76298426  0.83815558  0.33856133    -0.02500
C3287       C  0.76838524  0.85913186  0.35000679     0.07430
C3288       C  0.75970621  0.86324177  0.37235736    -0.02690
Br3289     Br  0.76820969  0.88993950  0.38994831    -0.01240
Br3290     Br  0.73313262  0.85229215  0.41320008    -0.01310
Br3291     Br  0.77904687  0.82603977  0.31177832    -0.01270
Br3292     Br  0.73451918  0.79907889  0.32861780    -0.01260
C3293       C  0.62925733  0.85175075  0.23153590    -0.02380
C3294       C  0.64903806  0.86632215  0.23113817     0.07300
C3295       C  0.66475673  0.86632332  0.24944623    -0.02490
C3296       C  0.66364196  0.84906001  0.26567094    -0.02500
C3297       C  0.64399735  0.83497062  0.26624329     0.07430
C3298       C  0.62690322  0.83612567  0.24945133    -0.02690
Br3299     Br  0.59999484  0.81667637  0.25196687    -0.01240
Br3300     Br  0.60451208  0.85254233  0.20898080    -0.01310
Br3301     Br  0.68802194  0.84606310  0.28841957    -0.01270
Br3302     Br  0.68736963  0.89033455  0.25252344    -0.01260
C3303       C  0.68312807  0.92997975  0.41738876    -0.02380
C3304       C  0.67343472  0.90982350  0.42724172     0.07300
C3305       C  0.67612046  0.90671969  0.45113218    -0.02490
C3306       C  0.68898938  0.92258722  0.46441921    -0.02500
C3307       C  0.70150020  0.94081333  0.45437000     0.07430
C3308       C  0.69670109  0.94537431  0.43087510    -0.02690
Br3309     Br  0.70618528  0.97429137  0.41786783    -0.01240
Br3310     Br  0.67637398  0.93789705  0.38581368    -0.01310
Br3311     Br  0.68318713  0.92289710  0.49623231    -0.01270
Br3312     Br  0.66228535  0.88056211  0.46614574    -0.01260
C3313       C  0.62129612  0.69192766  0.28684031    -0.02380
C3314       C  0.60370764  0.69206868  0.26998935     0.07300
C3315       C  0.58508970  0.70752175  0.27232425    -0.02490
C3316       C  0.58482332  0.72366231  0.29052662    -0.02500
C3317       C  0.60309205  0.72434807  0.30661921     0.07430
C3318       C  0.62094548  0.70787913  0.30506773    -0.02690
Br3319     Br  0.64565471  0.70776839  0.32745587    -0.01240
Br3320     Br  0.64656705  0.67047614  0.28440575    -0.01310
Br3321     Br  0.56053253  0.74615056  0.29225049    -0.01270
Br3322     Br  0.56089614  0.70773275  0.24953698    -0.01260
C3323       C  0.80573245  0.48706353  0.34699724    -0.02380
C3324       C  0.79937433  0.47574326  0.36724381     0.07300
C3325       C  0.78991422  0.48773128  0.38595246    -0.02490
C3326       C  0.78965552  0.51160859  0.38538687    -0.02500
C3327       C  0.79945706  0.52291606  0.36641841     0.07430
C3328       C  0.80671371  0.51091231  0.34686412    -0.02690
Br3329     Br  0.81922305  0.52705325  0.32075064    -0.01240
Br3330     Br  0.81194416  0.46980864  0.31953735    -0.01310
Br3331     Br  0.77774144  0.52864109  0.41131429    -0.01270
Br3332     Br  0.77875939  0.47171466  0.41282931    -0.01260
C3333       C  0.86253842  0.66531793  0.26822869    -0.02380
C3334       C  0.85037592  0.64515183  0.27292486     0.07300
C3335       C  0.84520771  0.62887051  0.25628387    -0.02490
C3336       C  0.85083093  0.63354615  0.23371375    -0.02500
C3337       C  0.86461892  0.65309309  0.22902493     0.07430
C3338       C  0.87093927  0.66864326  0.24630162    -0.02690
Br3339     Br  0.89017465  0.69494330  0.23985134    -0.01240
Br3340     Br  0.86654922  0.68884483  0.29130660    -0.01310
Br3341     Br  0.83618063  0.61466949  0.21042066    -0.01270
Br3342     Br  0.83035235  0.60039409  0.26461088    -0.01260
C3343       C  0.86827052  0.73427453  0.35326742    -0.02380
C3344       C  0.84997061  0.73145833  0.36938874     0.07300
C3345       C  0.83413727  0.74918814  0.37351043    -0.02490
C3346       C  0.83532606  0.76907947  0.36062360    -0.02500
C3347       C  0.85376959  0.77197372  0.34536795     0.07430
C3348       C  0.87019953  0.75498692  0.34156331    -0.02690
Br3349     Br  0.89517304  0.76049248  0.32017872    -0.01240
Br3350     Br  0.89049986  0.71073364  0.34533431    -0.01310
Br3351     Br  0.81148734  0.79226839  0.36358688    -0.01270
Br3352     Br  0.81049256  0.74609267  0.39656688    -0.01260
C3353       C  0.73741595  0.60206213  0.27877387    -0.02380
C3354       C  0.73255869  0.60789249  0.30181532     0.07300
C3355       C  0.70917840  0.60917103  0.30870825    -0.02490
C3356       C  0.69118711  0.60788276  0.29213358    -0.02500
C3357       C  0.69643403  0.60444632  0.26866835     0.07430
C3358       C  0.71937224  0.59955012  0.26260281    -0.02690
Br3359     Br  0.72542434  0.58714602  0.23259157    -0.01240
Br3360     Br  0.76874780  0.59681417  0.26937361    -0.01310
Br3361     Br  0.65954953  0.61129149  0.30162569    -0.01270
Br3362     Br  0.70159300  0.61355948  0.34060467    -0.01260
C3363       C  0.73215285  0.71392945  0.41098494    -0.02380
C3364       C  0.72866654  0.69162887  0.40226377     0.07300
C3365       C  0.70588916  0.68487232  0.39669197    -0.02490
C3366       C  0.68751708  0.70098882  0.39736285    -0.02500
C3367       C  0.69179532  0.72405432  0.40324565     0.07430
C3368       C  0.71402604  0.73017919  0.41095626    -0.02690
Br3369     Br  0.71978727  0.76128806  0.42065169    -0.01240
Br3370     Br  0.76172755  0.72196801  0.42367653    -0.01310
Br3371     Br  0.65679983  0.69194080  0.38851500    -0.01270
Br3372     Br  0.69988900  0.65410380  0.38657376    -0.01260
C3373       C  0.30329767  0.98740262  0.15222510    -0.02380
C3374       C  0.30114597  0.97553087  0.13138089     0.07300
C3375       C  0.29700331  0.98680225  0.11040239    -0.02490
C3376       C  0.29726767  0.01054784  0.10993580    -0.02500
C3377       C  0.30140129  0.02244221  0.13050216     0.07430
C3378       C  0.30314537  0.01126285  0.15179751    -0.02690
Br3379     Br  0.30585860  0.02864853  0.17989227    -0.01240
Br3380     Br  0.30775191  0.97100185  0.18077729    -0.01310
Br3381     Br  0.29343315  0.02665959  0.08102799    -0.01270
Br3382     Br  0.29234002  0.96980325  0.08219303    -0.01260
C3383       C  0.14273701  0.01079834  0.29278792    -0.02380
C3384       C  0.12234385  0.02254096  0.29818228     0.07300
C3385       C  0.10179235  0.01102436  0.30337461    -0.02490
C3386       C  0.10241112  0.98748107  0.30629651    -0.02500
C3387       C  0.12359160  0.97602067  0.30384557     0.07430
C3388       C  0.14331974  0.98710216  0.29553233    -0.02690
Br3389     Br  0.17113769  0.97001207  0.28909588    -0.01240
Br3390     Br  0.17000624  0.02723108  0.28346362    -0.01310
Br3391     Br  0.07428063  0.97118814  0.31343049    -0.01270
Br3392     Br  0.07301285  0.02751804  0.30706684    -0.01260
C3393       C  0.00991724  0.89159266  0.29663634    -0.02380
C3394       C  0.02277413  0.87138832  0.29947004     0.07300
C3395       C  0.01240696  0.84972904  0.29969218    -0.02490
C3396       C  0.98842298  0.84838292  0.29977727    -0.02500
C3397       C  0.97554133  0.86873147  0.29931485     0.07430
C3398       C  0.98600447  0.89025736  0.29640930    -0.02690
Br3399     Br  0.96774427  0.91799801  0.29412424    -0.01240
Br3400     Br  0.02500837  0.92107129  0.29493236    -0.01310
Br3401     Br  0.97321096  0.81914144  0.30225567    -0.01270
Br3402     Br  0.03108468  0.82234839  0.30137869    -0.01260
C3403       C  0.20567704  0.89716731  0.19001243    -0.02380
C3404       C  0.22913693  0.89936407  0.19639693     0.07300
C3405       C  0.23451098  0.90538299  0.21935622    -0.02490
C3406       C  0.21686966  0.90738412  0.23594026    -0.02500
C3407       C  0.19386803  0.90203339  0.23026119     0.07430
C3408       C  0.18815390  0.89794851  0.20696341    -0.02690
Br3409     Br  0.15664787  0.89164676  0.19843806    -0.01240
Br3410     Br  0.19750894  0.89149052  0.15839039    -0.01310
Br3411     Br  0.22384230  0.91819002  0.26650164    -0.01270
Br3412     Br  0.26616281  0.91070323  0.22826049    -0.01260
C3413       C  0.01156360  0.71748207  0.12172968    -0.02380
C3414       C  0.02209999  0.69678579  0.12903302     0.07300
C3415       C  0.00935902  0.68014420  0.14119275    -0.02490
C3416       C  0.98611235  0.68381067  0.14520557    -0.02500
C3417       C  0.97517098  0.70218570  0.13432369     0.07430
C3418       C  0.98776058  0.71990017  0.12383021    -0.02690
Br3419     Br  0.97273997  0.74597397  0.10944459    -0.01240
Br3420     Br  0.02836909  0.74132581  0.10565171    -0.01310
Br3421     Br  0.96847972  0.66270535  0.16398881    -0.01270
Br3422     Br  0.02190451  0.65113405  0.15053533    -0.01260
C3423       C  0.23204655  0.78476927  0.09121333    -0.02380
C3424       C  0.22812577  0.80650008  0.10112352     0.07300
C3425       C  0.20544796  0.81233969  0.10783868    -0.02490
C3426       C  0.18752882  0.79587563  0.10676165    -0.02500
C3427       C  0.19206748  0.77343324  0.09887426     0.07430
C3428       C  0.21416991  0.76834522  0.09017270    -0.02690
Br3429     Br  0.21994880  0.73851230  0.07722926    -0.01240
Br3430     Br  0.26204783  0.77758215  0.07899687    -0.01310
Br3431     Br  0.15717696  0.80352084  0.11776874    -0.01270
Br3432     Br  0.19921916  0.84231554  0.12013994    -0.01260
C3433       C  0.09604614  0.76797633  0.21578958    -0.02380
C3434       C  0.09877167  0.77379081  0.19233273     0.07300
C3435       C  0.10063106  0.79720446  0.18630157    -0.02490
C3436       C  0.10169119  0.81432009  0.20364432    -0.02500
C3437       C  0.10068697  0.80821359  0.22720316     0.07430
C3438       C  0.09691752  0.78502097  0.23304323    -0.02690
Br3439     Br  0.09314551  0.77648496  0.26493709    -0.01240
Br3440     Br  0.09153003  0.73631515  0.22439309    -0.01310
Br3441     Br  0.10686224  0.84581288  0.19505518    -0.01270
Br3442     Br  0.10383989  0.80577885  0.15444397    -0.01260
C3443       C  0.48923279  0.80927120  0.39714749    -0.02380
C3444       C  0.47665663  0.80309752  0.37741013     0.07300
C3445       C  0.48750745  0.79564019  0.35718665    -0.02490
C3446       C  0.51145124  0.79636600  0.35602855    -0.02500
C3447       C  0.52386234  0.80454425  0.37502792     0.07430
C3448       C  0.51310095  0.80988365  0.39599619    -0.02690
Br3449     Br  0.53080753  0.81774898  0.42318662    -0.01240
Br3450     Br  0.47391557  0.81678647  0.42573773    -0.01310
Br3451     Br  0.52720240  0.78748767  0.32823135    -0.01270
Br3452     Br  0.46973838  0.78618686  0.33066869    -0.01260
C3453       C  0.37462426  0.86497919  0.25622370    -0.02380
C3454       C  0.36642019  0.84385399  0.26452320     0.07300
C3455       C  0.34536978  0.83481899  0.25628073    -0.02490
C3456       C  0.33101120  0.84864584  0.24300930    -0.02500
C3457       C  0.33983997  0.86906248  0.23365398     0.07430
C3458       C  0.36056783  0.87825539  0.24198802    -0.02690
Br3459     Br  0.36929295  0.90902821  0.23355540    -0.01240
Br3460     Br  0.40488147  0.87577329  0.26501703    -0.01310
Br3461     Br  0.29910935  0.83971023  0.23875749    -0.01270
Br3462     Br  0.33593334  0.80342498  0.26182634    -0.01260
C3463       C  0.25405965  0.85040432  0.37462545    -0.02380
C3464       C  0.26714769  0.83923575  0.35786163     0.07300
C3465       C  0.26389977  0.84388712  0.33422765    -0.02490
C3466       C  0.24824022  0.86072876  0.32774257    -0.02500
C3467       C  0.23290687  0.86951575  0.34413958     0.07430
C3468       C  0.23774257  0.86653801  0.36778621    -0.02690
Br3469     Br  0.22382386  0.88580724  0.39073085    -0.01240
Br3470     Br  0.25989652  0.84454091  0.40694056    -0.01310
Br3471     Br  0.25101758  0.87452404  0.29776572    -0.01270
Br3472     Br  0.28215393  0.82916273  0.31052279    -0.01260
C3473       C  0.35116173  0.50971500  0.20207824    -0.02380
C3474       C  0.37187990  0.52181651  0.19984773     0.07300
C3475       C  0.39348418  0.51112307  0.20227701    -0.02490
C3476       C  0.39438583  0.48750444  0.20447293    -0.02500
C3477       C  0.37370776  0.47514177  0.20416790     0.07430
C3478       C  0.35209004  0.48595359  0.20417931    -0.02690
Br3479     Br  0.32413326  0.46810642  0.20504581    -0.01240
Br3480     Br  0.32188449  0.52550368  0.20071351    -0.01310
Br3481     Br  0.42385676  0.47194378  0.20634630    -0.01270
Br3482     Br  0.42178932  0.52856253  0.20182520    -0.01260
C3483       C  0.48770044  0.64156519  0.20840145    -0.02380
C3484       C  0.47596528  0.62084427  0.20528883     0.07300
C3485       C  0.48763426  0.59986572  0.20292007    -0.02490
C3486       C  0.51143460  0.59997362  0.20085761    -0.02500
C3487       C  0.52296282  0.62107218  0.20132314     0.07430
C3488       C  0.51160483  0.64165836  0.20645982    -0.02690
Br3489     Br  0.52853318  0.66998267  0.20857298    -0.01240
Br3490     Br  0.47094551  0.66985407  0.21263157    -0.01310
Br3491     Br  0.52796802  0.57148939  0.19627738    -0.01270
Br3492     Br  0.47095821  0.57128867  0.20085377    -0.01260
C3493       C  0.37484835  0.74629315  0.16127810    -0.02380
C3494       C  0.36201830  0.72733314  0.15464430     0.07300
C3495       C  0.33999791  0.72930020  0.14440368    -0.02490
C3496       C  0.33254642  0.75059633  0.13712444    -0.02500
C3497       C  0.34595620  0.76967637  0.14259009     0.07430
C3498       C  0.36597140  0.76784517  0.15669428    -0.02690
Br3499     Br  0.37990013  0.79362696  0.17254663    -0.01240
Br3500     Br  0.40396484  0.74251045  0.17726310    -0.01310
Br3501     Br  0.30397498  0.75352404  0.12005992    -0.01270
Br3502     Br  0.31919557  0.70355335  0.14172385    -0.01260
C3503       C  0.25258967  0.63316520  0.15976281    -0.02380
C3504       C  0.27104164  0.63613941  0.14460302     0.07300
C3505       C  0.26967830  0.65183497  0.12570998    -0.02490
C3506       C  0.24927802  0.66375884  0.12209290    -0.02500
C3507       C  0.23161267  0.66133556  0.13792369     0.07430
C3508       C  0.23343976  0.64703892  0.15740755    -0.02690
Br3509     Br  0.20980201  0.64626532  0.18093183    -0.01240
Br3510     Br  0.25397535  0.61067034  0.18437011    -0.01310
Br3511     Br  0.24510848  0.68348710  0.09555891    -0.01270
Br3512     Br  0.29476644  0.65940307  0.10504551    -0.01260
C3513       C  0.36817971  0.69964686  0.28391508    -0.02380
C3514       C  0.38798778  0.69144737  0.27219403     0.07300
C3515       C  0.40996132  0.69865831  0.28005106    -0.02490
C3516       C  0.41191204  0.71585282  0.29727111    -0.02500
C3517       C  0.39199146  0.72507635  0.30765310     0.07430
C3518       C  0.37038576  0.71530351  0.30226717    -0.02690
Br3519     Br  0.34356934  0.72313026  0.32046485    -0.01240
Br3520     Br  0.33745940  0.69055334  0.27484913    -0.01310
Br3521     Br  0.44169505  0.72761520  0.30595365    -0.01270
Br3522     Br  0.43736240  0.68640167  0.26599592    -0.01260
C3523       C  0.19929225  0.48683518  0.39756586    -0.02380
C3524       C  0.20380333  0.47616362  0.37636602     0.07300
C3525       C  0.20996727  0.48869098  0.35676295    -0.02490
C3526       C  0.20836481  0.51247572  0.35752646    -0.02500
C3527       C  0.20052206  0.52288400  0.37779333     0.07430
C3528       C  0.19752547  0.51049553  0.39826586    -0.02690
Br3529     Br  0.19064981  0.52571411  0.42705214    -0.01240
Br3530     Br  0.19479307  0.46917676  0.42540731    -0.01310
Br3531     Br  0.21510452  0.53059619  0.33061873    -0.01270
Br3532     Br  0.21857371  0.47329986  0.32866136    -0.01260
C3533       C  0.16757116  0.74014059  0.34022843    -0.02380
C3534       C  0.15584306  0.73074503  0.35950016     0.07300
C3535       C  0.13412424  0.73950401  0.36609042    -0.02490
C3536       C  0.12375417  0.75654771  0.35307381    -0.02500
C3537       C  0.13658992  0.76758058  0.33614336     0.07430
C3538       C  0.15891371  0.75991681  0.33007510    -0.02690
Br3539     Br  0.17962370  0.77702764  0.31013524    -0.01240
Br3540     Br  0.19404319  0.72632834  0.32504491    -0.01310
Br3541     Br  0.09252957  0.76636574  0.35962907    -0.01270
Br3542     Br  0.11788639  0.72832752  0.39268831    -0.01260
C3543       C  0.13212306  0.63684670  0.26175481    -0.02380
C3544       C  0.15397068  0.64258863  0.27075752     0.07300
C3545       C  0.16620957  0.66177115  0.26192019    -0.02490
C3546       C  0.15860265  0.67176865  0.24163224    -0.02500
C3547       C  0.13641895  0.66626781  0.23336591     0.07430
C3548       C  0.12263006  0.65024846  0.24449070    -0.02690
Br3549     Br  0.09108568  0.64610999  0.23514857    -0.01240
Br3550     Br  0.11456455  0.61107231  0.27297376    -0.01310
Br3551     Br  0.18031235  0.69068556  0.22472718    -0.01270
Br3552     Br  0.19134145  0.67749570  0.27748452    -0.01260
C3553       C  0.28972800  0.61654357  0.30688388    -0.02380
C3554       C  0.26998051  0.60246435  0.30567509     0.07300
C3555       C  0.26738650  0.58774474  0.28654462    -0.02490
C3556       C  0.28351293  0.58816442  0.26824431    -0.02500
C3557       C  0.30262137  0.60306244  0.26897296     0.07430
C3558       C  0.30629189  0.61624695  0.28901687    -0.02690
Br3559     Br  0.33414382  0.63381693  0.29202893    -0.01240
Br3560     Br  0.29326533  0.63749757  0.33229555    -0.01310
Br3561     Br  0.27956421  0.56833857  0.24201917    -0.01270
Br3562     Br  0.24105008  0.56780883  0.28490261    -0.01260
C3563       C  0.29425644  0.68909275  0.39570097    -0.02380
C3564       C  0.27053255  0.69462130  0.39737698     0.07300
C3565       C  0.26408277  0.71791085  0.39942369    -0.02490
C3566       C  0.28072178  0.73544902  0.39774343    -0.02500
C3567       C  0.30415346  0.73004469  0.39392952     0.07430
C3568       C  0.31098471  0.70673315  0.39394119    -0.02690
Br3569     Br  0.34297971  0.69879376  0.38946869    -0.01240
Br3570     Br  0.30388883  0.65749264  0.39386267    -0.01310
Br3571     Br  0.27128452  0.76710827  0.40074351    -0.01270
Br3572     Br  0.23215324  0.72591228  0.40448852    -0.01260
C3573       C  0.30418539  0.90175416  0.98847615    -0.02380
C3574       C  0.29921098  0.88157075  0.97631989     0.07300
C3575       C  0.29054214  0.86202453  0.98732482    -0.02490
C3576       C  0.28994044  0.86155978  0.01130102    -0.02500
C3577       C  0.29792075  0.88073604  0.02351516     0.07430
C3578       C  0.30348543  0.90135245  0.01234236    -0.02690
Br3579     Br  0.31049854  0.92885824  0.02956911    -0.01240
Br3580     Br  0.31239375  0.92971048  0.97259000    -0.01310
Br3581     Br  0.28024848  0.83419508  0.02725179    -0.01270
Br3582     Br  0.28144643  0.83548540  0.96968315    -0.01260
C3583       C  0.14801387  0.70011465  0.01195132    -0.02380
C3584       C  0.12669614  0.69812168  0.02303486     0.07300
C3585       C  0.10570259  0.69935700  0.01099767    -0.02490
C3586       C  0.10611246  0.70016209  0.98713780    -0.02500
C3587       C  0.12750022  0.69952609  0.97592518     0.07430
C3588       C  0.14843005  0.70074956  0.98799344    -0.02690
Br3589     Br  0.17733272  0.70176432  0.97168198    -0.01240
Br3590     Br  0.17630898  0.70063588  0.02955516    -0.01310
Br3591     Br  0.07753377  0.70089486  0.96983691    -0.01270
Br3592     Br  0.07655415  0.69881671  0.02706610    -0.01260
C3593       C  0.18950575  0.79598318  0.89372086    -0.02380
C3594       C  0.19612106  0.77308943  0.89851008     0.07300
C3595       C  0.21920973  0.76866768  0.90485824    -0.02490
C3596       C  0.23594854  0.78622051  0.90397629    -0.02500
C3597       C  0.22984728  0.80860478  0.89698999     0.07430
C3598       C  0.20632335  0.81361030  0.89283083    -0.02690
Br3599     Br  0.19731833  0.84424974  0.88424877    -0.01240
Br3600     Br  0.15765754  0.80319582  0.88733408    -0.01310
Br3601     Br  0.26742818  0.77967212  0.91242139    -0.01270
Br3602     Br  0.22764841  0.73850500  0.91549912    -0.01260
C3603       C  0.08902072  0.79821316  0.77810730    -0.02380
C3604       C  0.10856717  0.81227678  0.77519389     0.07300
C3605       C  0.12733516  0.80986410  0.79057549    -0.02490
C3606       C  0.12761096  0.79211055  0.80705317    -0.02500
C3607       C  0.10884208  0.77684528  0.80881153     0.07430
C3608       C  0.08908092  0.78064505  0.79501160    -0.02690
Br3609     Br  0.06293759  0.76054512  0.79797160    -0.01240
Br3610     Br  0.06296925  0.80193929  0.75772735    -0.01310
Br3611     Br  0.15430668  0.78827424  0.82666756    -0.01270
Br3612     Br  0.15322049  0.83052662  0.78858304    -0.01260
C3613       C  0.19046893  0.90018515  0.79261029    -0.02380
C3614       C  0.19638108  0.90473418  0.76946654     0.07300
C3615       C  0.21935504  0.91084849  0.76437821    -0.02490
C3616       C  0.23652018  0.91032548  0.78167676    -0.02500
C3617       C  0.23123600  0.90306647  0.80415981     0.07430
C3618       C  0.20786181  0.89921317  0.80987147    -0.02690
Br3619     Br  0.19974570  0.89116407  0.84094277    -0.01240
Br3620     Br  0.15889770  0.89362200  0.80043594    -0.01310
Br3621     Br  0.26736046  0.92016567  0.77485398    -0.01270
Br3622     Br  0.22744589  0.91955707  0.73337828    -0.01260
C3623       C  0.21854007  0.62083185  0.51456405    -0.02380
C3624       C  0.20047800  0.63251821  0.52581436     0.07300
C3625       C  0.18558738  0.64715351  0.51369169    -0.02490
C3626       C  0.18584527  0.64666453  0.48979270    -0.02500
C3627       C  0.20110973  0.63183774  0.47842227     0.07430
C3628       C  0.21883437  0.62048572  0.49053946    -0.02690
Br3629     Br  0.24157918  0.60198405  0.47480171    -0.01240
Br3630     Br  0.24116276  0.60296111  0.53140930    -0.01310
Br3631     Br  0.16459526  0.66540386  0.47278950    -0.01270
Br3632     Br  0.16431927  0.66706617  0.52978862    -0.01260
C3633       C  0.13425442  0.63004159  0.74599798    -0.02380
C3634       C  0.14931739  0.64354197  0.73285918     0.07300
C3635       C  0.14785279  0.66780598  0.73389334    -0.02490
C3636       C  0.13377255  0.67791443  0.75047055    -0.02500
C3637       C  0.12305848  0.66385809  0.76676969     0.07430
C3638       C  0.11959824  0.64067220  0.76162251    -0.02690
Br3639     Br  0.09565228  0.62376526  0.77692627    -0.01240
Br3640     Br  0.13383242  0.59717703  0.74288619    -0.01310
Br3641     Br  0.12712118  0.71032592  0.74940738    -0.01270
Br3642     Br  0.16358057  0.68761045  0.71229099    -0.01260
C3643       C  0.16653487  0.74786776  0.64162195    -0.02380
C3644       C  0.15055492  0.72990398  0.64151263     0.07300
C3645       C  0.12825669  0.73273748  0.65153169    -0.02490
C3646       C  0.12315943  0.75311904  0.66275931    -0.02500
C3647       C  0.14021026  0.76970017  0.66465706     0.07430
C3648       C  0.16220611  0.76696610  0.65492556    -0.02690
Br3649     Br  0.18611191  0.78989182  0.65851933    -0.01240
Br3650     Br  0.19326262  0.74759873  0.62192277    -0.01310
Br3651     Br  0.09279317  0.75897194  0.67537602    -0.01270
Br3652     Br  0.10376026  0.71019595  0.65047557    -0.01260
C3653       C  0.36697988  0.74851664  0.83395887    -0.02380
C3654       C  0.36320756  0.72905057  0.84753905     0.07300
C3655       C  0.34947346  0.73010493  0.86793844    -0.02490
C3656       C  0.34010974  0.75095206  0.87442777    -0.02500
C3657       C  0.34245704  0.76954148  0.85976234     0.07430
C3658       C  0.35521539  0.76847280  0.83918194    -0.02690
Br3659     Br  0.35653298  0.79403603  0.81787875    -0.01240
Br3660     Br  0.38863857  0.74816442  0.80863533    -0.01310
Br3661     Br  0.32416995  0.75445970  0.90346333    -0.01270
Br3662     Br  0.34124222  0.70409914  0.88716230    -0.01260
C3663       C  0.26954438  0.66034844  0.85053501    -0.02380
C3664       C  0.27006004  0.63898144  0.83929751     0.07300
C3665       C  0.25197359  0.62360102  0.84019868    -0.02490
C3666       C  0.23201789  0.63004877  0.85146502    -0.02500
C3667       C  0.23165120  0.65141587  0.86370377     0.07430
C3668       C  0.25113117  0.66544738  0.86457763    -0.02690
Br3669     Br  0.25311503  0.69107820  0.88551064    -0.01240
Br3670     Br  0.29397170  0.68266949  0.84708234    -0.01310
Br3671     Br  0.20634452  0.60903375  0.84782106    -0.01270
Br3672     Br  0.25494916  0.59375970  0.82582322    -0.01260
C3673       C  0.26571557  0.59701635  0.71921337    -0.02380
C3674       C  0.27052262  0.60012391  0.69562798     0.07300
C3675       C  0.29384140  0.60159888  0.68856939    -0.02490
C3676       C  0.31186782  0.60192834  0.70515910    -0.02500
C3677       C  0.30674607  0.60070591  0.72888717     0.07430
C3678       C  0.28367388  0.59728286  0.73566005    -0.02690
Br3679     Br  0.27662276  0.59312063  0.76776101    -0.01240
Br3680     Br  0.23426067  0.59257432  0.72910590    -0.01310
Br3681     Br  0.34332712  0.60616346  0.69538201    -0.01270
Br3682     Br  0.30129085  0.60527857  0.65647583    -0.01260
C3683       C  0.35194535  0.79712944  0.51119073    -0.02380
C3684       C  0.37294915  0.80152353  0.52240364     0.07300
C3685       C  0.39369127  0.80385807  0.51028546    -0.02490
C3686       C  0.39311386  0.80372868  0.48640591    -0.02500
C3687       C  0.37175699  0.80145714  0.47512795     0.07430
C3688       C  0.35134271  0.79713210  0.48720023    -0.02690
Br3689     Br  0.32265366  0.79258178  0.47088911    -0.01240
Br3690     Br  0.32405461  0.79255415  0.52862036    -0.01310
Br3691     Br  0.42148999  0.80684880  0.46927892    -0.01270
Br3692     Br  0.42277198  0.80742430  0.52633184    -0.01260
C3693       C  0.24720599  0.85660158  0.67288230    -0.02380
C3694       C  0.23497327  0.87112486  0.65775401     0.07300
C3695       C  0.24024538  0.87086974  0.63422870    -0.02490
C3696       C  0.24975371  0.85103048  0.62509713    -0.02500
C3697       C  0.26196886  0.83636732  0.63966454     0.07430
C3698       C  0.25995220  0.83844230  0.66379437    -0.02690
Br3699     Br  0.27421399  0.81650297  0.68439937    -0.01240
Br3700     Br  0.24672044  0.86172083  0.70573765    -0.01310
Br3701     Br  0.24594493  0.84305867  0.59319751    -0.01270
Br3702     Br  0.23207935  0.89643247  0.61479076    -0.01260
C3703       C  0.37512647  0.83798046  0.74745100    -0.02380
C3704       C  0.35892891  0.84068377  0.72996459     0.07300
C3705       C  0.33985550  0.85555166  0.73193768    -0.02490
C3706       C  0.33816247  0.86929740  0.75109720    -0.02500
C3707       C  0.35266291  0.86499822  0.76981889     0.07430
C3708       C  0.37196870  0.84985552  0.76789074    -0.02690
Br3709     Br  0.39452597  0.84428896  0.79202203    -0.01240
Br3710     Br  0.40135002  0.81779039  0.74303238    -0.01310
Br3711     Br  0.31651929  0.89443823  0.75147949    -0.01270
Br3712     Br  0.31607692  0.85752565  0.70848947    -0.01260
C3713       C  0.26394745  0.71455627  0.59480218    -0.02380
C3714       C  0.26935317  0.69246818  0.60305937     0.07300
C3715       C  0.29276794  0.68686271  0.60721745    -0.02490
C3716       C  0.31014199  0.70385438  0.60533963    -0.02500
C3717       C  0.30417666  0.72671583  0.59982807     0.07430
C3718       C  0.28108936  0.73168078  0.59361908    -0.02690
Br3719     Br  0.27278857  0.76233695  0.58403718    -0.01240
Br3720     Br  0.23302669  0.72103872  0.58445847    -0.01310
Br3721     Br  0.34182807  0.69613637  0.61190786    -0.01270
Br3722     Br  0.30095276  0.65635367  0.61701408    -0.01260
C3723       C  0.37675530  0.70931307  0.69370450    -0.02380
C3724       C  0.39444948  0.72578353  0.69170729     0.07300
C3725       C  0.41447738  0.72334452  0.70542593    -0.02490
C3726       C  0.41579852  0.70594371  0.72247572    -0.02500
C3727       C  0.39714658  0.69082576  0.72582758     0.07430
C3728       C  0.37812507  0.69193214  0.71058996    -0.02690
Br3729     Br  0.35343753  0.66994138  0.71331661    -0.01240
Br3730     Br  0.35012219  0.71093040  0.67371281    -0.01310
Br3731     Br  0.44238146  0.70375282  0.74237309    -0.01270
Br3732     Br  0.43934197  0.74487596  0.70190326    -0.01260
C3733       C  0.69611024  0.85098028  0.98888545    -0.02380
C3734       C  0.70090141  0.87172693  0.97775601     0.07300
C3735       C  0.70813360  0.89127903  0.98978607    -0.02490
C3736       C  0.70823714  0.89073571  0.01367650    -0.02500
C3737       C  0.70132156  0.87055488  0.02487225     0.07430
C3738       C  0.69665197  0.85032060  0.01281725    -0.02690
Br3739     Br  0.69005991  0.82234139  0.02920260    -0.01240
Br3740     Br  0.68717835  0.82429896  0.97141681    -0.01310
Br3741     Br  0.71559657  0.91815443  0.03087047    -0.01270
Br3742     Br  0.71575821  0.91927249  0.97365710    -0.01260
C3743       C  0.88955421  0.71012514  0.01195423    -0.02380
C3744       C  0.86961532  0.70445475  0.02424331     0.07300
C3745       C  0.84855111  0.69981087  0.01333044    -0.02490
C3746       C  0.84783491  0.69911302  0.98939298    -0.02500
C3747       C  0.86821679  0.70305737  0.97716736     0.07430
C3748       C  0.88888369  0.70937590  0.98812301    -0.02690
Br3749     Br  0.91672919  0.71498110  0.97073253    -0.01240
Br3750     Br  0.91817728  0.71689761  0.02775187    -0.01310
Br3751     Br  0.81969755  0.69132716  0.97339143    -0.01270
Br3752     Br  0.82145583  0.69288839  0.03121999    -0.01260
C3753       C  0.99156630  0.71761994  0.88584185    -0.02380
C3754       C  0.97873372  0.69986932  0.87560459     0.07300
C3755       C  0.98875854  0.68502091  0.85943976    -0.02490
C3756       C  0.01218990  0.68682296  0.85478111    -0.02500
C3757       C  0.02557396  0.70226036  0.86749595     0.07430
C3758       C  0.01519178  0.71896259  0.88162703    -0.02690
Br3759     Br  0.03300754  0.74256878  0.89679749    -0.01240
Br3760     Br  0.97769850  0.73831987  0.90788390    -0.01310
Br3761     Br  0.02624980  0.66825470  0.83112386    -0.01270
Br3762     Br  0.97089535  0.66172850  0.84427397    -0.01260
C3763       C  0.78207205  0.76613055  0.90186099    -0.02380
C3764       C  0.80480069  0.77238522  0.89594388     0.07300
C3765       C  0.80981574  0.79593427  0.89322932    -0.02490
C3766       C  0.79175832  0.81250327  0.89329045    -0.02500
C3767       C  0.76855686  0.80571968  0.89653850     0.07430
C3768       C  0.76427850  0.78273745  0.90268772    -0.02690
Br3769     Br  0.73426376  0.77442259  0.91393843    -0.01240
Br3770     Br  0.77534634  0.73465691  0.90923601    -0.01310
Br3771     Br  0.79889355  0.84425124  0.88806388    -0.01270
Br3772     Br  0.84120944  0.80542507  0.88837017    -0.01260
C3773       C  0.98820662  0.85386657  0.69203967    -0.02380
C3774       C  0.97615652  0.87257282  0.70116694     0.07300
C3775       C  0.98767129  0.89090569  0.71177143    -0.02490
C3776       C  0.01169195  0.89135660  0.71141923    -0.02500
C3777       C  0.02362240  0.87364136  0.70011497     0.07430
C3778       C  0.01215839  0.85457650  0.69103694    -0.02690
Br3779     Br  0.02926669  0.82991911  0.67684157    -0.01240
Br3780     Br  0.97183504  0.82733867  0.68145129    -0.01310
Br3781     Br  0.02792735  0.91709900  0.72464578    -0.01270
Br3782     Br  0.97068098  0.91604282  0.72529117    -0.01260
C3783       C  0.83064576  0.92952486  0.56778529    -0.02380
C3784       C  0.82712371  0.93088945  0.59174130     0.07300
C3785       C  0.80744690  0.94268254  0.59961054    -0.02490
C3786       C  0.79148942  0.95307845  0.58403670    -0.02500
C3787       C  0.79509354  0.95235475  0.55966716     0.07430
C3788       C  0.81495354  0.93990650  0.55189130    -0.02690
Br3789     Br  0.82137163  0.93614822  0.51947217    -0.01240
Br3790     Br  0.85754993  0.91332310  0.55684961    -0.01310
Br3791     Br  0.76538304  0.96896544  0.59724129    -0.01270
Br3792     Br  0.80268173  0.94476045  0.63228700    -0.01260
C3793       C  0.87928683  0.80520147  0.79093203    -0.02380
C3794       C  0.89634700  0.80643488  0.77372770     0.07300
C3795       C  0.91548462  0.79148640  0.77482923    -0.02490
C3796       C  0.91662820  0.77426643  0.79198298    -0.02500
C3797       C  0.89867861  0.77198889  0.80812705     0.07430
C3798       C  0.88046055  0.78809429  0.80805313    -0.02690
Br3799     Br  0.85607936  0.78566068  0.83043116    -0.01240
Br3800     Br  0.85339866  0.82606922  0.79017301    -0.01310
Br3801     Br  0.94179989  0.75262315  0.79238143    -0.01270
Br3802     Br  0.93909007  0.79348967  0.75165311    -0.01260
C3803       C  0.77986794  0.90360921  0.76517613    -0.02380
C3804       C  0.80267648  0.89714134  0.77079447     0.07300
C3805       C  0.80844760  0.89368186  0.79422420    -0.02490
C3806       C  0.79100657  0.89396527  0.81135429    -0.02500
C3807       C  0.76769353  0.89804431  0.80525090     0.07430
C3808       C  0.76264557  0.90433184  0.78230409    -0.02690
Br3809     Br  0.73201998  0.91449074  0.77443834    -0.01240
Br3810     Br  0.77216530  0.91138958  0.73374365    -0.01310
Br3811     Br  0.79896582  0.88722774  0.84281682    -0.01270
Br3812     Br  0.83992916  0.88703642  0.80271495    -0.01260
C3813       C  0.51341646  0.64794318  0.80765180    -0.02380
C3814       C  0.52465645  0.62874184  0.79858195     0.07300
C3815       C  0.51258850  0.61009192  0.78925030    -0.02490
C3816       C  0.48872314  0.60978769  0.79097048    -0.02500
C3817       C  0.47759246  0.62816382  0.80197246     0.07430
C3818       C  0.48953564  0.64766237  0.80933345    -0.02690
Br3819     Br  0.47325695  0.67342560  0.82217735    -0.01240
Br3820     Br  0.53091451  0.67385333  0.81865570    -0.01310
Br3821     Br  0.47171890  0.58332769  0.78026401    -0.01270
Br3822     Br  0.52870312  0.58404514  0.77631870    -0.01260
C3823       C  0.74969828  0.64116938  0.83182080    -0.02380
C3824       C  0.73072251  0.64068513  0.84670156     0.07300
C3825       C  0.73066132  0.65376034  0.86753243    -0.02490
C3826       C  0.75121060  0.66305969  0.87518527    -0.02500
C3827       C  0.76997381  0.66277377  0.86050638     0.07430
C3828       C  0.76878951  0.65382765  0.83805461    -0.02690
Br3829     Br  0.79325366  0.65835566  0.81595399    -0.01240
Br3830     Br  0.74983024  0.62460501  0.80294011    -0.01310
Br3831     Br  0.75400265  0.67602100  0.90570320    -0.01270
Br3832     Br  0.70345764  0.66236676  0.88497408    -0.01260
C3833       C  0.65906450  0.73229547  0.84882890    -0.02380
C3834       C  0.63660476  0.72794525  0.84097832     0.07300
C3835       C  0.61961115  0.74470276  0.83985745    -0.02490
C3836       C  0.62514868  0.76684283  0.84646553    -0.02500
C3837       C  0.64721855  0.77097519  0.85657656     0.07430
C3838       C  0.66396908  0.75354064  0.85794881    -0.02690
Br3839     Br  0.69361296  0.75806103  0.87256129    -0.01240
Br3840     Br  0.68326517  0.70933841  0.84700248    -0.01310
Br3841     Br  0.60263388  0.79024261  0.83874393    -0.01270
Br3842     Br  0.58901745  0.73699249  0.82884158    -0.01260
C3843       C  0.79248239  0.64247908  0.50981234    -0.02380
C3844       C  0.79701724  0.62276542  0.52284044     0.07300
C3845       C  0.79900657  0.60093123  0.51287290    -0.02490
C3846       C  0.79929887  0.59921243  0.48914575    -0.02500
C3847       C  0.79734363  0.61929658  0.47606471     0.07430
C3848       C  0.79261493  0.64073001  0.48596277    -0.02690
Br3849     Br  0.78835662  0.66771514  0.46708234    -0.01240
Br3850     Br  0.78789804  0.67177192  0.52460333    -0.01310
Br3851     Br  0.80301754  0.56960301  0.47459475    -0.01270
Br3852     Br  0.80206667  0.57356900  0.53153987    -0.01260
C3853       C  0.85950222  0.66312390  0.73155066    -0.02380
C3854       C  0.84606672  0.64326112  0.72881452     0.07300
C3855       C  0.84063958  0.62877846  0.74693496    -0.02490
C3856       C  0.84825428  0.63438205  0.76875573    -0.02500
C3857       C  0.86377149  0.65312650  0.77130976     0.07430
C3858       C  0.86949976  0.66733298  0.75274605    -0.02690
Br3859     Br  0.89060815  0.69278010  0.75639996    -0.01240
Br3860     Br  0.86365284  0.68498350  0.70676452    -0.01310
Br3861     Br  0.83456918  0.61730036  0.79394124    -0.01270
Br3862     Br  0.82286775  0.60127155  0.74156092    -0.01260
C3863       C  0.83791548  0.73703678  0.66221741    -0.02380
C3864       C  0.84126752  0.73319642  0.63830677     0.07300
C3865       C  0.85909267  0.74427578  0.62656907    -0.02490
C3866       C  0.87481759  0.75723379  0.63888204    -0.02500
C3867       C  0.86940788  0.76400874  0.66135769     0.07430
C3868       C  0.85280641  0.75178877  0.67389872    -0.02690
Br3869     Br  0.85103665  0.75454822  0.70705872    -0.01240
Br3870     Br  0.81310020  0.72316719  0.67959125    -0.01310
Br3871     Br  0.90331795  0.76623222  0.62481837    -0.01270
Br3872     Br  0.86222286  0.74119130  0.59367511    -0.01260
C3873       C  0.70765843  0.60558329  0.68933789    -0.02380
C3874       C  0.73092038  0.60106682  0.69511384     0.07300
C3875       C  0.73617844  0.59252071  0.71721429    -0.02490
C3876       C  0.71898334  0.59140738  0.73427229    -0.02500
C3877       C  0.69626868  0.59859050  0.72932565     0.07430
C3878       C  0.69032537  0.60404422  0.70635878    -0.02690
Br3879     Br  0.65876217  0.61056502  0.69837856    -0.01240
Br3880     Br  0.69971254  0.61566648  0.65869096    -0.01310
Br3881     Br  0.72637327  0.57983457  0.76452999    -0.01270
Br3882     Br  0.76698181  0.58209527  0.72395076    -0.01260
C3883       C  0.51023834  0.80233792  0.64929051    -0.02380
C3884       C  0.52188247  0.80283885  0.62820164     0.07300
C3885       C  0.51010918  0.80220734  0.60704399    -0.02490
C3886       C  0.48616680  0.80275880  0.60698672    -0.02500
C3887       C  0.47449723  0.80386782  0.62809142     0.07430
C3888       C  0.48620582  0.80286272  0.64923230    -0.02690
Br3889     Br  0.46933684  0.80333415  0.67779118    -0.01240
Br3890     Br  0.52722646  0.80204887  0.67792549    -0.01310
Br3891     Br  0.46946079  0.80245395  0.57809959    -0.01270
Br3892     Br  0.52674469  0.80109199  0.57824002    -0.05460
C3893       C  0.64534459  0.80603357  0.51193118    -0.02380
C3894       C  0.62441604  0.80052679  0.52252182     0.07300
C3895       C  0.60488418  0.79412063  0.50981030    -0.02490
C3896       C  0.60577808  0.79503304  0.48591733    -0.02500
C3897       C  0.62620320  0.80244529  0.47532363     0.07430
C3898       C  0.64621353  0.80720834  0.48801849    -0.02690
Br3899     Br  0.67434945  0.81579629  0.47263857    -0.01240
Br3900     Br  0.67239225  0.81224722  0.53024200    -0.01310
Br3901     Br  0.57863187  0.78774656  0.46795523    -0.01270
Br3902     Br  0.57670192  0.78540216  0.52515484    -0.01260
C3903       C  0.65828309  0.86356094  0.73194300    -0.02380
C3904       C  0.64373837  0.84424780  0.73031313     0.07300
C3905       C  0.63485232  0.83341912  0.74966613    -0.02490
C3906       C  0.63940185  0.84286459  0.77098901    -0.02500
C3907       C  0.65019189  0.86460080  0.77206516     0.07430
C3908       C  0.65970971  0.87491657  0.75270477    -0.02690
Br3909     Br  0.67484288  0.90424979  0.75476099    -0.01240
Br3910     Br  0.67782465  0.87344339  0.70682289    -0.01310
Br3911     Br  0.63284195  0.82454592  0.79791831    -0.01270
Br3912     Br  0.61681490  0.80577710  0.74692909    -0.01260
C3913       C  0.74661010  0.82383108  0.64076283    -0.02380
C3914       C  0.73398310  0.83873791  0.62636275     0.07300
C3915       C  0.74109510  0.86152567  0.62385836    -0.02490
C3916       C  0.75474490  0.87123680  0.64081521    -0.02500
C3917       C  0.76593296  0.85696920  0.65675744     0.07430
C3918       C  0.76212136  0.83300660  0.65662914    -0.02690
Br3919     Br  0.77824763  0.81220993  0.67722679    -0.01240
Br3920     Br  0.74346192  0.79093970  0.63824858    -0.01310
Br3921     Br  0.75923357  0.90394498  0.64146387    -0.01270
Br3922     Br  0.73266037  0.87918338  0.59714910    -0.01260
C3923       C  0.69100859  0.89841633  0.55359479    -0.02380
C3924       C  0.67027737  0.90629883  0.56346931     0.07300
C3925       C  0.66568643  0.92998350  0.56267247    -0.02490
C3926       C  0.68085995  0.94544839  0.55127888    -0.02500
C3927       C  0.70266545  0.93800090  0.54224219     0.07430
C3928       C  0.70756236  0.91392964  0.54425356    -0.02690
Br3929     Br  0.73593284  0.90085085  0.53271364    -0.01240
Br3930     Br  0.69586376  0.86575538  0.55173486    -0.01310
Br3931     Br  0.66966383  0.97632735  0.54707529    -0.01270
Br3932     Br  0.63812609  0.94119200  0.57755759    -0.01260
C3933       C  0.59329780  0.73326323  0.71687103    -0.02380
C3934       C  0.60280538  0.72948619  0.69488824     0.07300
C3935       C  0.61053341  0.70722841  0.68923020    -0.02490
C3936       C  0.61062516  0.68958331  0.70601753    -0.02500
C3937       C  0.60349824  0.69412979  0.72878073     0.07430
C3938       C  0.59397205  0.71583942  0.73382624    -0.02690
Br3939     Br  0.58219748  0.72178067  0.76423119    -0.01240
Br3940     Br  0.57913581  0.76239138  0.72354537    -0.01310
Br3941     Br  0.62212149  0.65966389  0.69822212    -0.01270
Br3942     Br  0.62263836  0.70132424  0.65900062    -0.01260
C3943       C  0.71605732  0.73472124  0.59197416    -0.02380
C3944       C  0.69303897  0.72931632  0.59754782     0.07300
C3945       C  0.68699478  0.70603717  0.60041727    -0.02490
C3946       C  0.70434008  0.68882576  0.60088546    -0.02500
C3947       C  0.72780874  0.69481240  0.59833118     0.07430
C3948       C  0.73335177  0.71766277  0.59255410    -0.02690
Br3949     Br  0.76491124  0.72579695  0.58591492    -0.01240
Br3950     Br  0.72385427  0.76573956  0.58346470    -0.01310
Br3951     Br  0.69603799  0.65749624  0.60723413    -0.01270
Br3952     Br  0.65526600  0.69780200  0.60528170    -0.01260
C3953       C  0.31452732  0.14816237  0.01310486    -0.02380
C3954       C  0.30384764  0.12922455  0.02345235     0.07300
C3955       C  0.29121314  0.11326410  0.01045792    -0.02490
C3956       C  0.29150417  0.11482787  0.98653162    -0.02500
C3957       C  0.30398148  0.13270013  0.97609063     0.07430
C3958       C  0.31404231  0.15019365  0.98919380    -0.02690
Br3959     Br  0.32685033  0.17675895  0.97423844    -0.01240
Br3960     Br  0.33038636  0.17070844  0.03158151    -0.01310
Br3961     Br  0.27667495  0.09119589  0.96844463    -0.01270
Br3962     Br  0.27567999  0.08783781  0.02511247    -0.01260
C3963       C  0.30548237  0.01405802  0.85295173    -0.02380
C3964       C  0.30237697  0.02357346  0.87486302     0.07300
C3965       C  0.29837365  0.01012773  0.89438915    -0.02490
C3966       C  0.29977629  0.98649716  0.89238400    -0.02500
C3967       C  0.30520863  0.97697605  0.87083686     0.07430
C3968       C  0.30688339  0.99034727  0.85089956    -0.02690
Br3969     Br  0.31222990  0.97620828  0.82138240    -0.01240
Br3970     Br  0.30929435  0.03355462  0.82638344    -0.01310
Br3971     Br  0.29589089  0.96748215  0.91938403    -0.01270
Br3972     Br  0.29302086  0.02418608  0.92404905    -0.01260
C3973       C  0.14499653  0.01178078  0.67567131    -0.02380
C3974       C  0.14194957  0.02469325  0.69564107     0.07300
C3975       C  0.13494635  0.01384450  0.71606263    -0.02490
C3976       C  0.12527908  0.99196892  0.71482216    -0.02500
C3977       C  0.12461107  0.98043114  0.69338732     0.07430
C3978       C  0.13322565  0.99126906  0.67347253    -0.02690
Br3979     Br  0.12403624  0.98274235  0.64274135    -0.01240
Br3980     Br  0.16356045  0.02316922  0.65068705    -0.01310
Br3981     Br  0.10833548  0.98106594  0.74129232    -0.01270
Br3982     Br  0.13815837  0.02878109  0.74559308    -0.01260
C3983       C  0.20507546  0.10080976  0.81483942    -0.02380
C3984       C  0.22832244  0.09778941  0.80810164     0.07300
C3985       C  0.23307252  0.09358110  0.78466773    -0.02490
C3986       C  0.21547991  0.09529327  0.76785635    -0.02500
C3987       C  0.19250197  0.09985028  0.77436933     0.07430
C3988       C  0.18721125  0.10139062  0.79805715    -0.02690
Br3989     Br  0.15569853  0.10600560  0.80748454    -0.01240
Br3990     Br  0.19763295  0.10602544  0.84669877    -0.01310
Br3991     Br  0.22298004  0.09177264  0.73569294    -0.01270
Br3992     Br  0.26383388  0.08478645  0.77576115    -0.01260
C3993       C  0.10902178  0.30219430  0.98361117    -0.02380
C3994       C  0.13121709  0.30393563  0.97409803     0.07300
C3995       C  0.15119897  0.30348890  0.98770492    -0.02490
C3996       C  0.14889960  0.30292634  0.01152853    -0.02500
C3997       C  0.12667697  0.30310678  0.02095332     0.07430
C3998       C  0.10675328  0.30192141  0.00733081    -0.02690
Br3999     Br  0.07649633  0.30041422  0.02118929    -0.01240
Br4000     Br  0.08173504  0.30085402  0.96436123    -0.01310
Br4001     Br  0.17581201  0.30308752  0.03120829    -0.01270
Br4002     Br  0.18129368  0.30479914  0.97371611    -0.01260
C4003       C  0.19165042  0.20760847  0.89239616    -0.02380
C4004       C  0.19837198  0.23063325  0.89576062     0.07300
C4005       C  0.22144216  0.23521490  0.90184520    -0.02490
C4006       C  0.23828076  0.21770977  0.90096336    -0.02500
C4007       C  0.23209577  0.19512599  0.89499709     0.07430
C4008       C  0.20847599  0.18990802  0.89196602    -0.02690
Br4009     Br  0.19925825  0.15885035  0.88561551    -0.01240
Br4010     Br  0.15958029  0.20030582  0.88781624    -0.01310
Br4011     Br  0.26994867  0.22464469  0.90795086    -0.01270
Br4012     Br  0.22948330  0.26527720  0.91292518    -0.01260
C4013       C  0.08359028  0.22363332  0.79458865    -0.02380
C4014       C  0.10348549  0.22570620  0.80852810     0.07300
C4015       C  0.12021157  0.20808993  0.80798874    -0.02490
C4016       C  0.11779215  0.18940742  0.79271809    -0.02500
C4017       C  0.09878291  0.18817838  0.77745605     0.07430
C4018       C  0.08134256  0.20505688  0.77898206    -0.02690
Br4019     Br  0.05540831  0.20374540  0.75821499    -0.01240
Br4020     Br  0.06032657  0.24727589  0.79567304    -0.01310
Br4021     Br  0.14156957  0.16621457  0.79148696    -0.01270
Br4022     Br  0.14730889  0.21024588  0.82721312    -0.01260
C4023       C  0.38244908  0.48787367  0.78498309    -0.02380
C4024       C  0.36836607  0.47632959  0.80091212     0.07300
C4025       C  0.35218427  0.48813306  0.81438059    -0.02490
C4026       C  0.35216561  0.51198928  0.81413640    -0.02500
C4027       C  0.36827751  0.52355998  0.80043118     0.07430
C4028       C  0.38234047  0.51174021  0.78469015    -0.02690
Br4029     Br  0.40377956  0.52774246  0.76492065    -0.01240
Br4030     Br  0.40425439  0.47158030  0.76577667    -0.01310
Br4031     Br  0.33083723  0.52879529  0.83319135    -0.01270
Br4032     Br  0.33077182  0.47168287  0.83372851    -0.01260
C4033       C  0.34607649  0.26731777  0.86331444    -0.02380
C4034       C  0.35852249  0.26934038  0.84228105     0.07300
C4035       C  0.36376626  0.25014673  0.82882493    -0.02490
C4036       C  0.35553531  0.22904931  0.83558625    -0.02500
C4037       C  0.34533182  0.22702015  0.85745271     0.07430
C4038       C  0.34125911  0.24568460  0.87163786    -0.02690
Br4039     Br  0.32920757  0.24138435  0.90233359    -0.01240
Br4040     Br  0.33290064  0.29290411  0.88025062    -0.01310
Br4041     Br  0.35753090  0.20351217  0.81427496    -0.01270
Br4042     Br  0.38259229  0.25216479  0.80160095    -0.01260
C4043       C  0.25198567  0.37402205  0.84924288    -0.02380
C4044       C  0.26591097  0.35882008  0.83714840     0.07300
C4045       C  0.26514639  0.33498386  0.84179192    -0.02490
C4046       C  0.24903454  0.32679925  0.85749106    -0.02500
C4047       C  0.23459048  0.34253485  0.86877062     0.07430
C4048       C  0.24013254  0.36593274  0.86818070    -0.02690
Br4049     Br  0.23115841  0.38659700  0.89241155    -0.01240
Br4050     Br  0.24798999  0.40503092  0.83863739    -0.01310
Br4051     Br  0.24673277  0.29436819  0.86327428    -0.01270
Br4052     Br  0.28619643  0.31344701  0.82757042    -0.01260
C4053       C  0.18726031  0.48559503  0.64296335    -0.02380
C4054       C  0.19966275  0.47515231  0.62518007     0.07300
C4055       C  0.21391766  0.48772165  0.61032739    -0.02490
C4056       C  0.21379053  0.51152178  0.61178517    -0.02500
C4057       C  0.19950172  0.52207875  0.62817877     0.07430
C4058       C  0.18744997  0.50930882  0.64459017    -0.02690
Br4059     Br  0.17086735  0.52437796  0.66878729    -0.01240
Br4060     Br  0.16938209  0.46753983  0.66436493    -0.01310
Br4061     Br  0.23102835  0.52931970  0.58966748    -0.01270
Br4062     Br  0.23134439  0.47273279  0.58629466    -0.01260
C4063       C  0.20568292  0.35420617  0.51181597    -0.02380
C4064       C  0.19691596  0.37290388  0.52423263     0.07300
C4065       C  0.19409518  0.39466739  0.51410773    -0.02490
C4066       C  0.19725292  0.39690938  0.49059190    -0.02500
C4067       C  0.20329330  0.37748464  0.47772487     0.07430
C4068       C  0.20884244  0.35649327  0.48818418    -0.02690
Br4069     Br  0.21874813  0.33056450  0.47005451    -0.01240
Br4070     Br  0.21219560  0.32538226  0.52693614    -0.01310
Br4071     Br  0.19273627  0.42640558  0.47591030    -0.01270
Br4072     Br  0.18636248  0.42154027  0.53211170    -0.01260
C4073       C  0.14029892  0.38099485  0.74346426    -0.02380
C4074       C  0.16245820  0.37533993  0.73589748     0.07300
C4075       C  0.17469122  0.35749773  0.74672860    -0.02490
C4076       C  0.16264759  0.34121426  0.75942263    -0.02500
C4077       C  0.13909391  0.34519724  0.76456910     0.07430
C4078       C  0.12774085  0.36478535  0.75570833    -0.02690
Br4079     Br  0.09535196  0.37003617  0.76161726    -0.01240
Br4080     Br  0.12737445  0.41057579  0.73590721    -0.01310
Br4081     Br  0.17908903  0.31377158  0.76887641    -0.01270
Br4082     Br  0.20791012  0.35549438  0.74434076    -0.01260
C4083       C  0.15254812  0.22980311  0.65025249    -0.02380
C4084       C  0.13193206  0.22902221  0.66345485     0.07300
C4085       C  0.12248711  0.24860502  0.67353125    -0.02490
C4086       C  0.13305445  0.26944312  0.66960464    -0.02500
C4087       C  0.15126932  0.27041304  0.65359891     0.07430
C4088       C  0.16170960  0.25087655  0.64477139    -0.02690
Br4089     Br  0.18837232  0.25311041  0.62502692    -0.01240
Br4090     Br  0.16964262  0.20297852  0.64007889    -0.01310
Br4091     Br  0.12363068  0.29585208  0.68749363    -0.01270
Br4092     Br  0.09523516  0.24678519  0.69255397    -0.01260
C4093       C  0.29404044  0.39912972  0.68645541    -0.02380
C4094       C  0.27069518  0.40122125  0.69311237     0.07300
C4095       C  0.26564048  0.40637919  0.71632163    -0.02490
C4096       C  0.28330292  0.40656928  0.73308789    -0.02500
C4097       C  0.30640364  0.40229945  0.72682800     0.07430
C4098       C  0.31184911  0.39980037  0.70326095    -0.02690
Br4099     Br  0.34340855  0.39495253  0.69415778    -0.01240
Br4100     Br  0.30162735  0.39309440  0.65475775    -0.01310
Br4101     Br  0.27570384  0.41178427  0.76502282    -0.01270
Br4102     Br  0.23425768  0.41292222  0.72531077    -0.01260
C4103       C  0.39075024  0.20370991  0.51402418    -0.02380
C4104       C  0.36975275  0.19668597  0.52376570     0.07300
C4105       C  0.35002716  0.19268106  0.51040632    -0.02490
C4106       C  0.35178040  0.19403175  0.48657757    -0.02500
C4107       C  0.37323445  0.19914721  0.47685982     0.07430
C4108       C  0.39247099  0.20497397  0.49025697    -0.02690
Br4109     Br  0.42166747  0.21229964  0.47604075    -0.01240
Br4110     Br  0.41772736  0.20937581  0.53289866    -0.01310
Br4111     Br  0.32547062  0.18775734  0.46716738    -0.01270
Br4112     Br  0.32134793  0.18404726  0.52471505    -0.01260
C4113       C  0.37628141  0.14564202  0.74547709    -0.02380
C4114       C  0.36027465  0.15860911  0.73296209     0.07300
C4115       C  0.33634975  0.15451816  0.73501528    -0.02490
C4116       C  0.32879341  0.13715020  0.74954303    -0.02500
C4117       C  0.34458300  0.12654554  0.76453829     0.07430
C4118       C  0.36845381  0.12869639  0.76031511    -0.02690
Br4119     Br  0.39048716  0.10763668  0.77334461    -0.01240
Br4120     Br  0.40900025  0.15013777  0.74074010    -0.01310
Br4121     Br  0.29805569  0.12524132  0.74566145    -0.01270
Br4122     Br  0.31369360  0.17078471  0.71650208    -0.01260
C4123       C  0.26030405  0.13442336  0.64251536    -0.02380
C4124       C  0.26678613  0.15785150  0.64351648     0.07300
C4125       C  0.25456129  0.17313456  0.65838436    -0.02490
C4126       C  0.23476961  0.16526841  0.66920166    -0.02500
C4127       C  0.22983837  0.14172598  0.66864009     0.07430
C4128       C  0.24400047  0.12624172  0.65762387    -0.02690
Br4129     Br  0.24116372  0.09401088  0.66416994    -0.01240
Br4130     Br  0.27263720  0.11278118  0.62070643    -0.01310
Br4131     Br  0.21433462  0.18710518  0.68415223    -0.01270
Br4132     Br  0.26376702  0.20400138  0.66678702    -0.01260
C4133       C  0.29082691  0.30942777  0.60547558    -0.02380
C4134       C  0.26754141  0.30273098  0.60279863     0.07300
C4135       C  0.26278393  0.27992196  0.59640696    -0.02490
C4136       C  0.28054889  0.26330947  0.59587584    -0.02500
C4137       C  0.30360313  0.26952642  0.60055905     0.07430
C4138       C  0.30879871  0.29292328  0.60408465    -0.02690
Br4139     Br  0.34031264  0.30219129  0.60878030    -0.01240
Br4140     Br  0.29814085  0.34084197  0.61262387    -0.01310
Br4141     Br  0.27322167  0.23175966  0.58912385    -0.01270
Br4142     Br  0.23193246  0.27174205  0.58736860    -0.01260
C4143       C  0.40625490  0.26730149  0.71472554    -0.02380
C4144       C  0.39896299  0.27229189  0.69203390     0.07300
C4145       C  0.39372202  0.29531664  0.68630031    -0.02490
C4146       C  0.39372151  0.31260294  0.70352336    -0.02500
C4147       C  0.39952521  0.30718906  0.72656126     0.07430
C4148       C  0.40710612  0.28474752  0.73162914    -0.02690
Br4149     Br  0.41942224  0.27826462  0.76174371    -0.01240
Br4150     Br  0.41461348  0.23626902  0.72279972    -0.01310
Br4151     Br  0.38439214  0.34339845  0.69581290    -0.01270
Br4152     Br  0.38479229  0.30294641  0.65526130    -0.01260
C4153       C  0.89269374  0.29739351  0.98758518    -0.02380
C4154       C  0.87146252  0.29904485  0.97596425     0.07300
C4155       C  0.85039988  0.29834069  0.98769305    -0.02490
C4156       C  0.85060008  0.29852209  0.01169383    -0.02500
C4157       C  0.87184422  0.29958817  0.02322337     0.07430
C4158       C  0.89289236  0.29777547  0.01148892    -0.02690
Br4159     Br  0.92192032  0.29747426  0.02801865    -0.01240
Br4160     Br  0.92144989  0.29639820  0.97081279    -0.01310
Br4161     Br  0.82214169  0.29897830  0.02877898    -0.01270
Br4162     Br  0.82164965  0.29893080  0.97088132    -0.01260
C4163       C  0.98962667  0.30450486  0.85488022    -0.02380
C4164       C  0.97835695  0.29915395  0.87543572     0.07300
C4165       C  0.99028688  0.29133889  0.89497385    -0.02490
C4166       C  0.01424034  0.29121716  0.89465820    -0.02500
C4167       C  0.02554340  0.29931554  0.87494493     0.07430
C4168       C  0.01358264  0.30512438  0.85475941    -0.02690
Br4169     Br  0.02995608  0.31515893  0.82771388    -0.01240
Br4170     Br  0.97212881  0.31130472  0.82741122    -0.01310
Br4171     Br  0.03139462  0.28185179  0.92168436    -0.01270
Br4172     Br  0.97389651  0.28249872  0.92248846    -0.01260
C4173       C  0.71612245  0.11434039  0.98547977    -0.02380
C4174       C  0.70277647  0.13221455  0.97584418     0.07300
C4175       C  0.69047449  0.14766991  0.98965147    -0.02490
C4176       C  0.69013643  0.14429413  0.01334343    -0.02500
C4177       C  0.70154834  0.12518371  0.02258848     0.07430
C4178       C  0.71545964  0.11083957  0.00914955    -0.02690
Br4179     Br  0.73171391  0.08516384  0.02284810    -0.01240
Br4180     Br  0.73286070  0.09274102  0.96651881    -0.01310
Br4181     Br  0.67398278  0.16542335  0.03318356    -0.01270
Br4182     Br  0.67286738  0.17230960  0.97592496    -0.01260
C4183       C  0.68842890  0.01395628  0.85561842    -0.02380
C4184       C  0.70019683  0.02473519  0.87373685     0.07300
C4185       C  0.71195352  0.01226652  0.89080325    -0.02490
C4186       C  0.71060602  0.98849064  0.89062721    -0.02500
C4187       C  0.69773435  0.97770499  0.87318775     0.07430
C4188       C  0.68725693  0.99013044  0.85529623    -0.02690
Br4189     Br  0.67061296  0.97453298  0.83112999    -0.01240
Br4190     Br  0.67307975  0.03191417  0.83211594    -0.01310
Br4191     Br  0.72423724  0.97110273  0.91563122    -0.01270
Br4192     Br  0.72767455  0.02773036  0.91575528    -0.01260
C4193       C  0.76331234  0.22213841  0.89296245    -0.02380
C4194       C  0.76851717  0.19862611  0.89016656     0.07300
C4195       C  0.79202332  0.19189528  0.88993286    -0.02490
C4196       C  0.80981098  0.20862492  0.88998716    -0.02500
C4197       C  0.80432458  0.23227140  0.89082688     0.07430
C4198       C  0.78099552  0.23874787  0.89323513    -0.02690
Br4199     Br  0.77317586  0.27063840  0.89721763    -0.01240
Br4200     Br  0.73181170  0.23174293  0.89733668    -0.01310
Br4201     Br  0.84152101  0.19904226  0.88687045    -0.01270
Br4202     Br  0.80010307  0.15989096  0.88834379    -0.01260
C4203       C  0.98471869  0.10718228  0.69939911    -0.02380
C4204       C  0.97541923  0.12945549  0.69793362     0.07300
C4205       C  0.98911343  0.14906222  0.69989292    -0.02490
C4206       C  0.01294730  0.14641010  0.70048708    -0.02500
C4207       C  0.02218601  0.12423548  0.69907573     0.07430
C4208       C  0.00845080  0.10458097  0.69976989    -0.02690
Br4209     Br  0.02218030  0.07429717  0.69966402    -0.01240
Br4210     Br  0.96524879  0.08027139  0.69948689    -0.01310
Br4211     Br  0.03290250  0.17280510  0.70147167    -0.01270
Br4212     Br  0.97522783  0.17914705  0.70033800    -0.01260
C4213       C  0.89391338  0.01052952  0.71050509    -0.02380
C4214       C  0.87644446  0.02303929  0.69932152     0.07300
C4215       C  0.85682818  0.01231378  0.69020336    -0.02490
C4216       C  0.85546898  0.98849334  0.69078741    -0.02500
C4217       C  0.87392987  0.97583807  0.69992859     0.07430
C4218       C  0.89277065  0.98665263  0.71063823    -0.02690
Br4219     Br  0.91784820  0.96894600  0.72366626    -0.01240
Br4220     Br  0.92029144  0.02597533  0.72364693    -0.01310
Br4221     Br  0.82867503  0.97310980  0.67888898    -0.01270
Br4222     Br  0.83239413  0.03022361  0.67627540    -0.01260
C4223       C  0.83241363  0.03801314  0.58784073    -0.02380
C4224       C  0.83348115  0.06211993  0.58701450     0.07300
C4225       C  0.82036398  0.07326738  0.56945579    -0.02490
C4226       C  0.80343932  0.06123582  0.55657591    -0.02500
C4227       C  0.80129902  0.03714549  0.55825119     0.07430
C4228       C  0.81801441  0.02581056  0.57218807    -0.02690
Br4229     Br  0.82587429  0.99486731  0.56612100    -0.01240
Br4230     Br  0.85077998  0.02143790  0.61009307    -0.01310
Br4231     Br  0.78422639  0.07814478  0.53546994    -0.01270
Br4232     Br  0.82758452  0.10434473  0.56019180    -0.01260
C4233       C  0.78310112  0.09535865  0.76385334    -0.02380
C4234       C  0.80554253  0.10267424  0.76966633     0.07300
C4235       C  0.81018263  0.10884239  0.79276313    -0.02490
C4236       C  0.79219018  0.10916723  0.80935496    -0.02500
C4237       C  0.76926550  0.10356950  0.80299494     0.07430
C4238       C  0.76520586  0.09571534  0.78034019    -0.02690
Br4239     Br  0.73500220  0.08497915  0.77188179    -0.01240
Br4240     Br  0.77686284  0.08500177  0.73291895    -0.01310
Br4241     Br  0.79882539  0.11885952  0.84033028    -0.01270
Br4242     Br  0.84076198  0.11873834  0.80124368    -0.01260
C4243       C  0.87179063  0.21813904  0.79980589    -0.02380
C4244       C  0.89312418  0.22816294  0.80603721     0.07300
C4245       C  0.91349578  0.21946653  0.79600825    -0.02490
C4246       C  0.91235385  0.20269406  0.77828915    -0.02500
C4247       C  0.89075807  0.19441410  0.77040103     0.07430
C4248       C  0.87059645  0.20149470  0.78217470    -0.02690
Br4249     Br  0.84106276  0.18780472  0.77505351    -0.01240
Br4250     Br  0.84392890  0.22657716  0.81603295    -0.01310
Br4251     Br  0.94041770  0.19217215  0.76403204    -0.01270
Br4252     Br  0.94290223  0.23135440  0.80585271    -0.01260
C4253       C  0.51134325  0.20510894  0.64194290    -0.02380
C4254       C  0.52420937  0.19476525  0.62436034     0.07300
C4255       C  0.51425037  0.18974482  0.60278356    -0.02490
C4256       C  0.49048039  0.19140506  0.60030313    -0.02500
C4257       C  0.47728681  0.19847098  0.61920110     0.07430
C4258       C  0.48753116  0.20707890  0.63929659    -0.02690
Br4259     Br  0.46889886  0.21983077  0.66363651    -0.01240
Br4260     Br  0.52612540  0.21537559  0.66986974    -0.01310
Br4261     Br  0.47595796  0.18387763  0.57122558    -0.01270
Br4262     Br  0.53277761  0.18122087  0.57646302    -0.01260
C4263       C  0.63815084  0.18741002  0.51102010    -0.02380
C4264       C  0.62243510  0.20152454  0.52273207     0.07300
C4265       C  0.61052608  0.21931022  0.51140350    -0.02490
C4266       C  0.61200989  0.22086367  0.48754388    -0.02500
C4267       C  0.62543257  0.20462552  0.47571861     0.07430
C4268       C  0.63979971  0.18911223  0.48731187    -0.02690
Br4269     Br  0.66076096  0.16943077  0.47054714    -0.01240
Br4270     Br  0.65686948  0.16524121  0.52697125    -0.01310
Br4271     Br  0.59335657  0.24320185  0.47130476    -0.01270
Br4272     Br  0.58992242  0.23959929  0.52783589    -0.01260
C4273       C  0.73464397  0.15709351  0.65575855    -0.02380
C4274       C  0.73594710  0.16663858  0.63345730     0.07300
C4275       C  0.75507094  0.16369908  0.61960820    -0.02490
C4276       C  0.77343382  0.15087250  0.62800102    -0.02500
C4277       C  0.77051058  0.13814608  0.64902836     0.07430
C4278       C  0.75057309  0.14069037  0.66220791    -0.02690
Br4279     Br  0.74475091  0.12152239  0.68881243    -0.01240
Br4280     Br  0.71101193  0.16566869  0.67747884    -0.01310
Br4281     Br  0.80169475  0.15337841  0.61028481    -0.01270
Br4282     Br  0.75548431  0.17718238  0.58910334    -0.01260
C4283       C  0.62885106  0.15059487  0.76415014    -0.02380
C4284       C  0.64388767  0.13219676  0.76956426     0.07300
C4285       C  0.65784500  0.12183139  0.75319333    -0.02490
C4286       C  0.66056958  0.13258671  0.73233528    -0.02500
C4287       C  0.64738472  0.15241999  0.72760800     0.07430
C4288       C  0.63057306  0.16067451  0.74266170    -0.02690
Br4289     Br  0.60983956  0.18533952  0.73384406    -0.01240
Br4290     Br  0.60715018  0.16361185  0.78577522    -0.01310
Br4291     Br  0.68358728  0.12066743  0.71139270    -0.01270
Br4292     Br  0.67501050  0.09431236  0.76056535    -0.01260
C4293       C  0.68993076  0.05412745  0.55787575    -0.02380
C4294       C  0.70626817  0.06067251  0.54086361     0.07300
C4295       C  0.70729810  0.08438154  0.53538871    -0.02490
C4296       C  0.69278602  0.10059505  0.54661579    -0.02500
C4297       C  0.67444681  0.09357719  0.56101418     0.07430
C4298       C  0.67348207  0.07002570  0.56673577    -0.02690
Br4299     Br  0.65105970  0.05994426  0.58902498    -0.01240
Br4300     Br  0.69289616  0.02478861  0.57288731    -0.01310
Br4301     Br  0.70099410  0.13249234  0.54545352    -0.01270
Br4302     Br  0.72894077  0.09553481  0.51309300    -0.01260
C4303       C  0.51247134  0.39438852  0.80568612    -0.02380
C4304       C  0.52357642  0.37317614  0.80244533     0.07300
C4305       C  0.51138279  0.35341594  0.79617336    -0.02490
C4306       C  0.48739750  0.35420755  0.79597867    -0.02500
C4307       C  0.47640687  0.37458915  0.80248576     0.07430
C4308       C  0.48858374  0.39505459  0.80588776    -0.02690
Br4309     Br  0.47267035  0.42379317  0.81113690    -0.01240
Br4310     Br  0.52974578  0.42240307  0.81012765    -0.01310
Br4311     Br  0.46960895  0.32734911  0.78826525    -0.01270
Br4312     Br  0.52734999  0.32514006  0.78968436    -0.01260
C4313       C  0.60413945  0.48788866  0.79771124    -0.02380
C4314       C  0.62479858  0.47549280  0.79959241     0.07300
C4315       C  0.64644300  0.48610855  0.79914261    -0.02490
C4316       C  0.64737706  0.50993452  0.79900016    -0.02500
C4317       C  0.62663908  0.52231212  0.79922536     0.07430
C4318       C  0.60506048  0.51161055  0.79744400    -0.02690
Br4319     Br  0.57685006  0.52936069  0.79573028    -0.01240
Br4320     Br  0.57470952  0.47241783  0.79658318    -0.01310
Br4321     Br  0.67663405  0.52560200  0.80006737    -0.01270
Br4322     Br  0.67440373  0.46807743  0.80039201    -0.01260
C4323       C  0.74949523  0.36780339  0.83906168    -0.02380
C4324       C  0.73133334  0.36288383  0.85400058     0.07300
C4325       C  0.73474401  0.35014878  0.87468222    -0.02490
C4326       C  0.75695153  0.34417288  0.88091215    -0.02500
C4327       C  0.77435392  0.34752292  0.86499840     0.07430
C4328       C  0.77084374  0.35856836  0.84373076    -0.02690
Br4329     Br  0.79449761  0.36008414  0.82031011    -0.01240
Br4330     Br  0.74519753  0.38654597  0.81190259    -0.01310
Br4331     Br  0.76374387  0.33097682  0.91079692    -0.01270
Br4332     Br  0.71037979  0.33717820  0.89327574    -0.01260
C4333       C  0.63129934  0.25382877  0.83706111    -0.02380
C4334       C  0.63698129  0.27198644  0.85168570     0.07300
C4335       C  0.65080718  0.26877841  0.87171924    -0.02490
C4336       C  0.65648333  0.24674127  0.87828346    -0.02500
C4337       C  0.65169046  0.22903010  0.86312281     0.07430
C4338       C  0.63995771  0.23234411  0.84209886    -0.02690
Br4339     Br  0.63660042  0.20806993  0.81966241    -0.01240
Br4340     Br  0.61258219  0.25852986  0.80972527    -0.01310
Br4341     Br  0.67118870  0.24068690  0.90763560    -0.01270
Br4342     Br  0.66554426  0.29333956  0.88867414    -0.01260
C4343       C  0.62752396  0.28688773  0.69689004    -0.02380
C4344       C  0.60901435  0.27125306  0.69517140     0.07300
C4345       C  0.59027229  0.27352240  0.71043141    -0.02490
C4346       C  0.59082546  0.29011195  0.72825292    -0.02500
C4347       C  0.61020090  0.30445068  0.73111906     0.07430
C4348       C  0.62826491  0.30313503  0.71490764    -0.02690
Br4349     Br  0.65452629  0.32317836  0.71769536    -0.01240
Br4350     Br  0.65200932  0.28611339  0.67440455    -0.01310
Br4351     Br  0.56579176  0.29209971  0.74981567    -0.01270
Br4352     Br  0.56460645  0.25279758  0.70791000    -0.01260
C4353       C  0.80837966  0.48883165  0.64818885    -0.02380
C4354       C  0.80160879  0.47706046  0.62826045     0.07300
C4355       C  0.79178029  0.48841885  0.60925564    -0.02490
C4356       C  0.79093490  0.51223292  0.60929628    -0.02500
C4357       C  0.79930249  0.52406013  0.62861232     0.07430
C4358       C  0.80648266  0.51261809  0.64859249    -0.02690
Br4359     Br  0.81345001  0.52965910  0.67616554    -0.01240
Br4360     Br  0.82118351  0.47249735  0.67420334    -0.01310
Br4361     Br  0.77977809  0.52855972  0.58246870    -0.01270
Br4362     Br  0.78139945  0.47161529  0.58247999    -0.01260
C4363       C  0.82051618  0.35582377  0.51266001    -0.02380
C4364       C  0.80204114  0.36544994  0.52465201     0.07300
C4365       C  0.78367425  0.37594319  0.51273084    -0.02490
C4366       C  0.78627332  0.38091116  0.48933097    -0.02500
C4367       C  0.80722011  0.37522091  0.47822703     0.07430
C4368       C  0.82419382  0.36219320  0.48992373    -0.02690
Br4369     Br  0.85352621  0.35438632  0.47673887    -0.01240
Br4370     Br  0.84125326  0.33467402  0.52801131    -0.01310
Br4371     Br  0.76222864  0.39831965  0.47392940    -0.01270
Br4372     Br  0.75560460  0.38482747  0.52828472    -0.01260
C4373       C  0.84358658  0.37721907  0.74948659    -0.02380
C4374       C  0.84988045  0.36464838  0.73018283     0.07300
C4375       C  0.86839095  0.34859791  0.73069452    -0.02490
C4376       C  0.87910047  0.34377866  0.75143311    -0.02500
C4377       C  0.87131367  0.35475931  0.77116940     0.07430
C4378       C  0.85442359  0.37255155  0.77026980    -0.02690
Br4379     Br  0.84460157  0.39048933  0.79662667    -0.01240
Br4380     Br  0.82043033  0.40111452  0.74710349    -0.01310
Br4381     Br  0.90408348  0.32161602  0.75323816    -0.01270
Br4382     Br  0.87957413  0.33238711  0.70384391    -0.01260
C4383       C  0.84162462  0.25335069  0.61885147    -0.02380
C4384       C  0.84119241  0.26985476  0.63605519     0.07300
C4385       C  0.85160576  0.26637574  0.65763751    -0.02490
C4386       C  0.86409773  0.24658483  0.66146359    -0.02500
C4387       C  0.86177946  0.22853195  0.64580554     0.07430
C4388       C  0.85128574  0.23208123  0.62380243    -0.02690
Br4389     Br  0.84849760  0.20891389  0.60012231    -0.01240
Br4390     Br  0.82780249  0.25982252  0.58915158    -0.01310
Br4391     Br  0.88470247  0.24466731  0.68771993    -0.01270
Br4392     Br  0.84729118  0.28765141  0.68264106    -0.01260
C4393       C  0.70499708  0.39325992  0.69040735    -0.02380
C4394       C  0.72801798  0.39967546  0.69521613     0.07300
C4395       C  0.73346606  0.40753040  0.71752404    -0.02490
C4396       C  0.71681509  0.40703749  0.73524717    -0.02500
C4397       C  0.69454834  0.39818749  0.73116065     0.07430
C4398       C  0.68828888  0.39268581  0.70824481    -0.02690
Br4399     Br  0.65713209  0.38355034  0.70130444    -0.01240
Br4400     Br  0.69672744  0.38367525  0.65976427    -0.01310
Br4401     Br  0.72409702  0.41958645  0.76501122    -0.01270
Br4402     Br  0.76401413  0.41889806  0.72375425    -0.01260
C4403       C  0.73267705  0.28514458  0.59627807    -0.02380
C4404       C  0.72712318  0.30825717  0.60082121     0.07300
C4405       C  0.70355972  0.31473887  0.60148791    -0.02490
C4406       C  0.68593255  0.29793531  0.59986075    -0.02500
C4407       C  0.69166821  0.27454845  0.59703041     0.07430
C4408       C  0.71512876  0.26853506  0.59407647    -0.02690
Br4409     Br  0.72335458  0.23711758  0.58746682    -0.01240
Br4410     Br  0.76457124  0.27606715  0.59339890    -0.01310
Br4411     Br  0.65413589  0.30677366  0.60383076    -0.01270
Br4412     Br  0.69524794  0.34628937  0.60674833    -0.01260
C4413       C  0.54249255  0.67239039  0.90747982    -0.02380
C4414       C  0.56665001  0.66904986  0.90925655     0.07300
C4415       C  0.57795387  0.68067172  0.92784114    -0.02490
C4416       C  0.56568925  0.69585287  0.94289395    -0.02500
C4417       C  0.54172815  0.70007833  0.94014282     0.07430
C4418       C  0.53036933  0.68615662  0.92370260    -0.02690
Br4419     Br  0.49871628  0.67970050  0.92772745    -0.01240
Br4420     Br  0.52514541  0.65907182  0.88245074    -0.01310
Br4421     Br  0.58135570  0.70877479  0.96925437    -0.01270
Br4422     Br  0.61021196  0.67507719  0.93426304    -0.01260
C4423       C  0.57968259  0.78837227  0.94583516    -0.02380
C4424       C  0.56180229  0.79537542  0.96092159     0.07300
C4425       C  0.56040750  0.81933427  0.96585360    -0.02490
C4426       C  0.57565777  0.83550748  0.95530056    -0.02500
C4427       C  0.59359860  0.82824399  0.94049148     0.07430
C4428       C  0.59600955  0.80428340  0.93703063    -0.02690
Br4429     Br  0.62301142  0.79263536  0.92165314    -0.01240
Br4430     Br  0.58063506  0.75742091  0.93446422    -0.01310
Br4431     Br  0.57122412  0.86784976  0.96038831    -0.01270
Br4432     Br  0.53788398  0.83045489  0.98753838    -0.01260
C4433       C  0.44121070  0.68463187  0.94887379    -0.02380
C4434       C  0.45346259  0.70419820  0.94054934     0.07300
C4435       C  0.45298243  0.70777703  0.91615569    -0.02490
C4436       C  0.44232165  0.69160490  0.90105620    -0.02500
C4437       C  0.43247178  0.67107437  0.90941522     0.07430
C4438       C  0.43149039  0.66817430  0.93351429    -0.02690
Br4439     Br  0.41532934  0.64187324  0.94551291    -0.01240
Br4440     Br  0.43504028  0.68093722  0.98131740    -0.01310
Br4441     Br  0.44016551  0.69805272  0.86855440    -0.01270
Br4442     Br  0.46779357  0.73404874  0.90239616    -0.01260
C4443       C  0.41471756  0.79184933  0.95844089    -0.02380
C4444       C  0.43889904  0.79638927  0.96024844     0.07300
C4445       C  0.44687382  0.81698231  0.94932732    -0.02490
C4446       C  0.43123232  0.83246313  0.93831962    -0.02500
C4447       C  0.40726617  0.82852082  0.93832864     0.07430
C4448       C  0.39921483  0.80819199  0.94864345    -0.02690
Br4449     Br  0.36640927  0.80239539  0.94831839    -0.01240
Br4450     Br  0.40219612  0.76206539  0.96563945    -0.01310
Br4451     Br  0.44269016  0.85854166  0.92131059    -0.01270
Br4452     Br  0.47941506  0.82364287  0.94625360    -0.01260
C4453       C  0.45003354  0.66117526  0.07359679    -0.02380
C4454       C  0.44203125  0.66821899  0.09538853     0.07300
C4455       C  0.44561322  0.69138118  0.10163655    -0.02490
C4456       C  0.45586934  0.70744482  0.08615682    -0.02500
C4457       C  0.46356273  0.70065767  0.06379874     0.07430
C4458       C  0.46129718  0.67679168  0.05836653    -0.02690
Br4459     Br  0.47424002  0.66428933  0.03044664    -0.01240
Br4460     Br  0.44396055  0.63012491  0.06393919    -0.01310
Br4461     Br  0.45806344  0.73894593  0.09617960    -0.01270
Br4462     Br  0.43618964  0.70110779  0.13195131    -0.01260
C4463       C  0.43167675  0.83099395  0.06743006    -0.02380
C4464       C  0.40756154  0.82932043  0.06449229     0.07300
C4465       C  0.39929332  0.81122884  0.05058963    -0.02490
C4466       C  0.41464491  0.79482231  0.04042549    -0.02500
C4467       C  0.43916980  0.79680947  0.04248244     0.07430
C4468       C  0.44722698  0.81555588  0.05625308    -0.02690
Br4469     Br  0.47965433  0.82013818  0.06177444    -0.01240
Br4470     Br  0.44340014  0.85458605  0.08763109    -0.01310
Br4471     Br  0.40110762  0.76910174  0.02479237    -0.01270
Br4472     Br  0.36640271  0.80862016  0.04616438    -0.01260
C4473       C  0.54951686  0.68669092  0.10075248    -0.02380
C4474       C  0.56029186  0.66664821  0.09232445     0.07300
C4475       C  0.55986989  0.66286545  0.06838724    -0.02490
C4476       C  0.54943014  0.67891364  0.05298793    -0.02500
C4477       C  0.53882389  0.69960913  0.06122763     0.07430
C4478       C  0.53860174  0.70274644  0.08561423    -0.02690
Br4479     Br  0.52337821  0.72885777  0.09917390    -0.01240
Br4480     Br  0.55074859  0.69253796  0.13344440    -0.01310
Br4481     Br  0.55159397  0.67202262  0.02046437    -0.01270
Br4482     Br  0.57511124  0.63579249  0.05665699    -0.01260
C4483       C  0.58386189  0.80122189  0.03247623    -0.02380
C4484       C  0.56208590  0.79462034  0.04146144     0.07300
C4485       C  0.55562643  0.80438195  0.06283101    -0.02490
C4486       C  0.56927716  0.82141238  0.07384590    -0.02500
C4487       C  0.59087103  0.82834777  0.06477132     0.07430
C4488       C  0.59778569  0.81819220  0.04370544    -0.02690
Br4489     Br  0.62676010  0.82712023  0.03045342    -0.01240
Br4490     Br  0.59576783  0.78576393  0.00585696    -0.01310
Br4491     Br  0.55738423  0.83603861  0.10119725    -0.01270
Br4492     Br  0.52976063  0.79171184  0.07920623    -0.01260
C4493       C  0.91539321  0.53479202  0.69752854    -0.02380
C4494       C  0.93689989  0.54405888  0.70450502     0.07300
C4495       C  0.94319078  0.56551572  0.69484838    -0.02490
C4496       C  0.92884513  0.57696779  0.67844586    -0.02500
C4497       C  0.90761913  0.56737066  0.67088081     0.07430
C4498       C  0.90148237  0.54575506  0.68031222    -0.02690
Br4499     Br  0.87384430  0.53081383  0.66997502    -0.01240
Br4500     Br  0.90415489  0.50751789  0.71226497    -0.01310
Br4501     Br  0.93931934  0.60561013  0.66547187    -0.01270
Br4502     Br  0.97071941  0.58065867  0.70571715    -0.01260
C4503       C  0.95408490  0.58643335  0.79477463    -0.02380
C4504       C  0.95533050  0.56224913  0.79883519     0.07300
C4505       C  0.94573700  0.55438147  0.82022056    -0.02490
C4506       C  0.93595213  0.56989919  0.83650171    -0.02500
C4507       C  0.93506811  0.59367215  0.83231073     0.07430
C4508       C  0.94326877  0.60155462  0.81081517    -0.02690
Br4509     Br  0.93810941  0.63317987  0.80250711    -0.01240
Br4510     Br  0.96858375  0.60012115  0.76825774    -0.01310
Br4511     Br  0.92241009  0.55850776  0.86463110    -0.01270
Br4512     Br  0.94646791  0.52248690  0.82901162    -0.01260
C4513       C  0.91923831  0.44631874  0.71281654    -0.02380
C4514       C  0.93667307  0.46105184  0.70424064     0.07300
C4515       C  0.93753825  0.46424044  0.67991170    -0.02490
C4516       C  0.92255205  0.45189785  0.66474722    -0.02500
C4517       C  0.90561409  0.43677073  0.67343422     0.07430
C4518       C  0.90336558  0.43536895  0.69774507    -0.02690
Br4519     Br  0.87714581  0.41999633  0.71104422    -0.01240
Br4520     Br  0.91766864  0.43914875  0.74527758    -0.01310
Br4521     Br  0.92577270  0.45528144  0.63191696    -0.01270
Br4522     Br  0.95866347  0.48625277  0.66701664    -0.01260
C4523       C  0.93074138  0.43370630  0.82916474    -0.02380
C4524       C  0.93937024  0.41130646  0.83333544     0.07300
C4525       C  0.95731648  0.40338155  0.81887081    -0.02490
C4526       C  0.96662722  0.41755151  0.80106013    -0.02500
C4527       C  0.95836577  0.44028346  0.79748280     0.07430
C4528       C  0.93941804  0.44750346  0.81102841    -0.02690
Br4529     Br  0.92236278  0.47458851  0.80213482    -0.01240
Br4530     Br  0.90633013  0.44569735  0.84830210    -0.01310
Br4531     Br  0.99056444  0.40546855  0.78154934    -0.01270
Br4532     Br  0.96848333  0.37260446  0.82290605    -0.01260
C4533       C  0.06575586  0.47020728  0.68244875    -0.02380
C4534       C  0.05882809  0.46073528  0.70380696     0.07300
C4535       C  0.06508550  0.43762470  0.70779965    -0.02490
C4536       C  0.07885074  0.42507646  0.69184225    -0.02500
C4537       C  0.08928433  0.43593678  0.67221092     0.07430
C4538       C  0.08201964  0.45890967  0.66781090    -0.02690
Br4539     Br  0.09278587  0.47545376  0.64127776    -0.01240
Br4540     Br  0.05016906  0.49699485  0.67119377    -0.01310
Br4541     Br  0.07993287  0.39211732  0.69659577    -0.01270
Br4542     Br  0.05198864  0.42161342  0.73369973    -0.01260
C4543       C  0.03098230  0.43328505  0.81796739    -0.02380
C4544       C  0.04108785  0.44237092  0.79782854     0.07300
C4545       C  0.06492972  0.43838029  0.79498260    -0.02490
C4546       C  0.07736089  0.42325058  0.80982682    -0.02500
C4547       C  0.06597755  0.41044050  0.82764053     0.07430
C4548       C  0.04228551  0.41600114  0.83131619    -0.02690
Br4549     Br  0.02400496  0.40030862  0.85392994    -0.01240
Br4550     Br  0.00392740  0.44792204  0.83019680    -0.01310
Br4551     Br  0.11056976  0.42259168  0.80577340    -0.01270
Br4552     Br  0.08169826  0.45691254  0.77316398    -0.01260
C4553       C  0.06718890  0.56219374  0.66660386    -0.02380
C4554       C  0.09107530  0.56235216  0.67108923     0.07300
C4555       C  0.09885741  0.55168235  0.69152075    -0.02490
C4556       C  0.08341658  0.54015666  0.70659495    -0.02500
C4557       C  0.05905244  0.54150204  0.70340187     0.07430
C4558       C  0.05129025  0.55260374  0.68264452    -0.02690
Br4559     Br  0.01894839  0.55487493  0.67478991    -0.01240
Br4560     Br  0.05630061  0.57619716  0.63842182    -0.01310
Br4561     Br  0.09670368  0.52083657  0.73007455    -0.01270
Br4562     Br  0.13090857  0.55411026  0.69968107    -0.01260
C4563       C  0.03070430  0.57472414  0.81651573    -0.02380
C4564       C  0.04109958  0.56067458  0.79954408     0.07300
C4565       C  0.06529548  0.55807539  0.80140919    -0.02490
C4566       C  0.07858980  0.57193071  0.81664312    -0.02500
C4567       C  0.06815916  0.58979732  0.82979385     0.07430
C4568       C  0.04378295  0.59006382  0.83042893    -0.02690
Br4569     Br  0.02780097  0.60998610  0.85159131    -0.01240
Br4570     Br  0.00022305  0.56824368  0.82605177    -0.01310
Br4571     Br  0.11031819  0.56308851  0.82219332    -0.01270
Br4572     Br  0.07994460  0.53288755  0.78583936    -0.01260
C4573       C  0.91332397  0.70478630  0.45914319    -0.02380
C4574       C  0.93639754  0.69877185  0.46563613     0.07300
C4575       C  0.94215026  0.67493084  0.46398826    -0.02490
C4576       C  0.92709313  0.65883848  0.45313404    -0.02500
C4577       C  0.90507080  0.66540099  0.44511099     0.07430
C4578       C  0.89810646  0.68834765  0.44902768    -0.02690
Br4579     Br  0.86710472  0.69720327  0.44048886    -0.01240
Br4580     Br  0.90134700  0.73529581  0.46427122    -0.01310
Br4581     Br  0.93715823  0.62772816  0.44791188    -0.01270
Br4582     Br  0.96970680  0.66297855  0.47821802    -0.01260
C4583       C  0.94455615  0.78520576  0.41854478    -0.02380
C4584       C  0.95917486  0.79364690  0.43633664     0.07300
C4585       C  0.96254184  0.81783588  0.43712293    -0.02490
C4586       C  0.95033671  0.83303179  0.42197105    -0.02500
C4587       C  0.93464449  0.82460534  0.40524935     0.07430
C4588       C  0.93282714  0.80039040  0.40314616    -0.02690
Br4589     Br  0.91515996  0.78747772  0.37806186    -0.01240
Br4590     Br  0.93920718  0.75266456  0.41540310    -0.01310
Br4591     Br  0.95456524  0.86566455  0.42486112    -0.01270
Br4592     Br  0.98475110  0.83051913  0.45838661    -0.01260
C4593       C  0.91303720  0.70631792  0.54036524    -0.02380
C4594       C  0.93701086  0.70077426  0.53788862     0.07300
C4595       C  0.94388068  0.67823862  0.54526942    -0.02490
C4596       C  0.92792909  0.66295113  0.55588029    -0.02500
C4597       C  0.90463982  0.66909165  0.55896037     0.07430
C4598       C  0.89722560  0.69043704  0.55025400    -0.02690
Br4599     Br  0.86466517  0.69733602  0.55138000    -0.01240
Br4600     Br  0.90078998  0.73586419  0.53136035    -0.01310
Br4601     Br  0.93797512  0.63331243  0.56694588    -0.01270
Br4602     Br  0.97519090  0.66725556  0.54184321    -0.01260
C4603       C  0.93125203  0.83000142  0.56843622    -0.02380
C4604       C  0.93312087  0.82689009  0.59246608     0.07300
C4605       C  0.94584476  0.80779509  0.60042927    -0.02490
C4606       C  0.95641159  0.79198667  0.58494929    -0.02500
C4607       C  0.95487324  0.79502581  0.56054410     0.07430
C4608       C  0.94182849  0.81445415  0.55265148    -0.02690
Br4609     Br  0.93734638  0.82032292  0.52016916    -0.01240
Br4610     Br  0.91402665  0.85613086  0.55721367    -0.01310
Br4611     Br  0.97396630  0.76697564  0.59819066    -0.01270
Br4612     Br  0.94883049  0.80341145  0.63307477    -0.01260
C4613       C  0.05545986  0.67967100  0.45358605    -0.02380
C4614       C  0.06186812  0.70177064  0.46236081     0.07300
C4615       C  0.08564372  0.70778907  0.46009911    -0.02490
C4616       C  0.10155962  0.69311368  0.44849599    -0.02500
C4617       C  0.09497287  0.67130105  0.44013006     0.07430
C4618       C  0.07194900  0.66456314  0.44346024    -0.02690
Br4619     Br  0.06278764  0.63460971  0.43262872    -0.01240
Br4620     Br  0.02384370  0.66965850  0.45291420    -0.01310
Br4621     Br  0.13267857  0.70338137  0.44347180    -0.01270
Br4622     Br  0.09741740  0.73630527  0.47233800    -0.01260
C4623       C  0.05267065  0.81404544  0.44616287    -0.02380
C4624       C  0.03849358  0.79554507  0.43819273     0.07300
C4625       C  0.03568330  0.79363286  0.41385303    -0.02490
C4626       C  0.04735256  0.80873684  0.39835025    -0.02500
C4627       C  0.06218681  0.82619624  0.40645469     0.07430
C4628       C  0.06421866  0.82895220  0.43049333    -0.02690
Br4629     Br  0.08332536  0.85355533  0.44191238    -0.01240
Br4630     Br  0.05796657  0.81916849  0.47864182    -0.01310
Br4631     Br  0.04298326  0.80574290  0.36559585    -0.01270
Br4632     Br  0.01529701  0.77079792  0.40115537    -0.01260
C4633       C  0.07708029  0.66426374  0.54867865    -0.02380
C4634       C  0.09360233  0.67256904  0.56465609     0.07300
C4635       C  0.09453847  0.69671560  0.56770336    -0.02490
C4636       C  0.07774448  0.71155773  0.55775674    -0.02500
C4637       C  0.06156576  0.70363947  0.54125345     0.07430
C4638       C  0.06167742  0.67957468  0.53677439    -0.02690
Br4639     Br  0.04022166  0.66703899  0.51480072    -0.01240
Br4640     Br  0.07480659  0.63169793  0.54374912    -0.01310
Br4641     Br  0.07438513  0.74159962  0.57086389    -0.01270
Br4642     Br  0.12005482  0.71040799  0.58410993    -0.01260
C4643       C  0.04214161  0.82728688  0.58997992    -0.02380
C4644       C  0.06667455  0.82742025  0.59068780     0.07300
C4645       C  0.07807858  0.81363629  0.57374508    -0.02490
C4646       C  0.06540570  0.79956294  0.55802507    -0.02500
C4647       C  0.04107893  0.79792017  0.55906816     0.07430
C4648       C  0.02993501  0.81412068  0.57329662    -0.02690
Br4649     Br  0.99957367  0.82383042  0.56526703    -0.01240
Br4650     Br  0.02404253  0.84399918  0.61216033    -0.01310
Br4651     Br  0.08119379  0.78536303  0.53245275    -0.01270
Br4652     Br  0.11124464  0.81422528  0.57052043    -0.01260
C4653       C  0.67944511  0.47093821  0.93729461    -0.02380
C4654       C  0.70232841  0.46263237  0.94074091     0.07300
C4655       C  0.70822008  0.44233610  0.92926710    -0.02490
C4656       C  0.69477872  0.43414123  0.91086687    -0.02500
C4657       C  0.67156195  0.44132840  0.90752414     0.07430
C4658       C  0.66398322  0.45997014  0.92137801    -0.02690
Br4659     Br  0.63243827  0.47018434  0.91948009    -0.01240
Br4660     Br  0.66825664  0.49556695  0.95619838    -0.01310
Br4661     Br  0.71105265  0.41644169  0.88842464    -0.01270
Br4662     Br  0.72916092  0.42100744  0.94374253    -0.01260
C4663       C  0.79248383  0.43178900  0.93834875    -0.02380
C4664       C  0.79846975  0.44118461  0.95982688     0.07300
C4665       C  0.82085864  0.43568346  0.96837968    -0.02490
C4666       C  0.83576562  0.42001180  0.95638026    -0.02500
C4667       C  0.82822165  0.40853594  0.93609081     0.07430
C4668       C  0.80532242  0.41368750  0.92854688    -0.02690
Br4669     Br  0.78861146  0.39445980  0.90728349    -0.01240
Br4670     Br  0.77179821  0.44846309  0.91837948    -0.01310
Br4671     Br  0.86660562  0.41486653  0.96770343    -0.01270
Br4672     Br  0.83217662  0.45142270  0.99518443    -0.01260
C4673       C  0.66639640  0.56165993  0.93042039    -0.02380
C4674       C  0.67011023  0.56054704  0.90652008     0.07300
C4675       C  0.69033605  0.54948707  0.89873714    -0.02490
C4676       C  0.70610696  0.53888355  0.91447223    -0.02500
C4677       C  0.70278585  0.54031155  0.93880989     0.07430
C4678       C  0.68279888  0.55262827  0.94634963    -0.02690
Br4679     Br  0.67820167  0.55992875  0.97836947    -0.01240
Br4680     Br  0.63868176  0.57653599  0.94129532    -0.01310
Br4681     Br  0.73229109  0.52280290  0.90179802    -0.01270
Br4682     Br  0.69689693  0.54996888  0.86618508    -0.01260
C4683       C  0.82069182  0.55782893  0.95605581    -0.02380
C4684       C  0.79716562  0.56357599  0.96128707     0.07300
C4685       C  0.78978078  0.58622047  0.95508453    -0.02490
C4686       C  0.80505728  0.60198395  0.94419053    -0.02500
C4687       C  0.82820184  0.59612788  0.93940851     0.07430
C4688       C  0.83585054  0.57401497  0.94561967    -0.02690
Br4689     Br  0.86720056  0.56547963  0.93829252    -0.01240
Br4690     Br  0.83308279  0.52745385  0.96151126    -0.01310
Br4691     Br  0.79424460  0.63213235  0.93544227    -0.01270
Br4692     Br  0.75837357  0.59634095  0.95994238    -0.01260
C4693       C  0.71071168  0.45434275  0.08477808    -0.02380
C4694       C  0.70349050  0.46298853  0.06289025     0.07300
C4695       C  0.67934945  0.46098978  0.05756569    -0.02490
C4696       C  0.66349462  0.45094464  0.07336845    -0.02500
C4697       C  0.67100168  0.44182326  0.09455082     0.07430
C4698       C  0.69467950  0.44415936  0.10026814    -0.02690
Br4699     Br  0.70535526  0.43310872  0.12985711    -0.01240
Br4700     Br  0.74297425  0.45376780  0.09344864    -0.01310
Br4701     Br  0.63124398  0.44814408  0.06546196    -0.01270
Br4702     Br  0.66700548  0.47004057  0.02797640    -0.01260
C4703       C  0.79945227  0.41646818  0.03583976    -0.02380
C4704       C  0.79853599  0.44018617  0.04168988     0.07300
C4705       C  0.81400951  0.44778277  0.05924821    -0.02490
C4706       C  0.82939375  0.43228120  0.07055460    -0.02500
C4707       C  0.82981113  0.40867028  0.06508481     0.07430
C4708       C  0.81481270  0.40100928  0.04743859    -0.02690
Br4709     Br  0.81476528  0.36885238  0.03981494    -0.01240
Br4710     Br  0.78017054  0.40479645  0.01142546    -0.01310
Br4711     Br  0.85033038  0.44349526  0.09388099    -0.01270
Br4712     Br  0.81344370  0.47926635  0.06961803    -0.01260
C4713       C  0.71007742  0.54492859  0.08575157    -0.02380
C4714       C  0.70293724  0.53778719  0.06327197     0.07300
C4715       C  0.67892674  0.54067054  0.05789113    -0.02490
C4716       C  0.66348562  0.55174033  0.07338701    -0.02500
C4717       C  0.67113961  0.55998303  0.09482581     0.07430
C4718       C  0.69441306  0.55599391  0.10105034    -0.02690
Br4719     Br  0.70487887  0.56600941  0.13104287    -0.01240
Br4720     Br  0.74138268  0.54041470  0.09649584    -0.01310
Br4721     Br  0.63173198  0.55717711  0.06468899    -0.01270
Br4722     Br  0.66588213  0.52965843  0.02945319    -0.01260
C4723       C  0.82240263  0.56066216  0.03759010    -0.02380
C4724       C  0.79792058  0.56403453  0.03803580     0.07300
C4725       C  0.78993317  0.58476386  0.04837642    -0.02490
C4726       C  0.80564183  0.60099553  0.05788961    -0.02500
C4727       C  0.82972619  0.59693713  0.05849779     0.07430
C4728       C  0.83790997  0.57679401  0.04779902    -0.02690
Br4729     Br  0.87063677  0.57076703  0.04817002    -0.01240
Br4730     Br  0.83563067  0.53388611  0.02325740    -0.01310
Br4731     Br  0.79405710  0.62972925  0.06946574    -0.01270
Br4732     Br  0.75730457  0.59096690  0.05170078    -0.01260
C4733       C  0.42242544  0.93883037  0.70759216    -0.02380
C4734       C  0.44433827  0.94831232  0.70308938     0.07300
C4735       C  0.45549244  0.94094688  0.68266847    -0.02490
C4736       C  0.44553366  0.92393246  0.66775893    -0.02500
C4737       C  0.42338003  0.91407622  0.67221846     0.07430
C4738       C  0.41176128  0.92285934  0.69227078    -0.02690
Br4739     Br  0.38037609  0.91460868  0.69985059    -0.01240
Br4740     Br  0.40714979  0.94672030  0.73603814    -0.01310
Br4741     Br  0.46265098  0.91566287  0.64068377    -0.01270
Br4742     Br  0.48406458  0.95558444  0.67414649    -0.01260
C4743       C  0.41136839  0.94790651  0.81908619    -0.02380
C4744       C  0.41745557  0.92837379  0.83208537     0.07300
C4745       C  0.43964743  0.91881379  0.82849800    -0.02490
C4746       C  0.45498003  0.92775902  0.81158662    -0.02500
C4747       C  0.44876965  0.94705516  0.79774286     0.07430
C4748       C  0.42667962  0.95720502  0.80228381    -0.02690
Br4749     Br  0.41561074  0.98303267  0.78472810    -0.01240
Br4750     Br  0.38103198  0.96100841  0.82331829    -0.01310
Br4751     Br  0.48457161  0.91286724  0.80804307    -0.01270
Br4752     Br  0.44934252  0.89327043  0.84748042    -0.01260
C4753       C  0.53259760  0.91604658  0.69870268    -0.02380
C4754       C  0.54195106  0.93782122  0.70448773     0.07300
C4755       C  0.56316617  0.94389872  0.69386211    -0.02490
C4756       C  0.57441830  0.92902114  0.67802095    -0.02500
C4757       C  0.56518125  0.90727954  0.67227594     0.07430
C4758       C  0.54397629  0.90108355  0.68274415    -0.02690
Br4759     Br  0.53080981  0.87154918  0.67596952    -0.01240
Br4760     Br  0.50381281  0.90666189  0.71222641    -0.01310
Br4761     Br  0.60243989  0.93924366  0.66330711    -0.01270
Br4762     Br  0.57821634  0.97230968  0.70186961    -0.01260
C4763       C  0.57841843  0.95044159  0.79400641    -0.02380
C4764       C  0.55564921  0.95785126  0.80016426     0.07300
C4765       C  0.54919879  0.95420254  0.82365056    -0.02490
C4766       C  0.56524326  0.94511063  0.84020698    -0.02500
C4767       C  0.58798510  0.93885968  0.83400151     0.07430
C4768       C  0.59426611  0.94175068  0.81071926    -0.02690
Br4769     Br  0.62520725  0.93343459  0.80154885    -0.01240
Br4770     Br  0.58800895  0.94872182  0.76215272    -0.01310
Br4771     Br  0.55582262  0.94007255  0.87159160    -0.01270
Br4772     Br  0.51793997  0.95970086  0.83360627    -0.01260
C4773       C  0.46231375  0.08150364  0.70162170    -0.02380
C4774       C  0.45796401  0.05723045  0.70120551     0.07300
C4775       C  0.44097253  0.04964367  0.68508298    -0.02490
C4776       C  0.42923057  0.06540318  0.67015493    -0.02500
C4777       C  0.43426950  0.08914296  0.67022143     0.07430
C4778       C  0.45107884  0.09687700  0.68597442    -0.02690
Br4779     Br  0.45816310  0.12921801  0.68640898    -0.01240
Br4780     Br  0.48419140  0.09486090  0.72301613    -0.01310
Br4781     Br  0.40541291  0.05453937  0.64962275    -0.01270
Br4782     Br  0.43168973  0.01790750  0.68431967    -0.01260
C4783       C  0.44479374  0.04038556  0.82083263    -0.02380
C4784       C  0.43909204  0.03767119  0.79697237     0.07300
C4785       C  0.41622988  0.04407615  0.79030192    -0.02490
C4786       C  0.40035381  0.05325988  0.80660881    -0.02500
C4787       C  0.40720801  0.05852379  0.82938474     0.07430
C4788       C  0.42940019  0.05145822  0.83644973    -0.02690
Br4789     Br  0.43897535  0.05786738  0.86760785    -0.01240
Br4790     Br  0.47332118  0.02832835  0.83318518    -0.01310
Br4791     Br  0.36837305  0.05770593  0.79823178    -0.01270
Br4792     Br  0.40628885  0.04206986  0.75858082    -0.01260
C4793       C  0.55244692  0.08872308  0.67157622    -0.02380
C4794       C  0.57702685  0.08861029  0.67233505     0.07300
C4795       C  0.58740045  0.07113946  0.68630163    -0.02490
C4796       C  0.57392698  0.05699032  0.70116124    -0.02500
C4797       C  0.54958671  0.05898508  0.70207065     0.07430
C4798       C  0.53927241  0.07297199  0.68498209    -0.02690
Br4799     Br  0.50855170  0.06590080  0.67522578    -0.01240
Br4800     Br  0.53590270  0.10997308  0.65206033    -0.01310
Br4801     Br  0.58880270  0.03247911  0.71808562    -0.01270
Br4802     Br  0.61968074  0.06350784  0.68320254    -0.01260
C4803       C  0.59844778  0.06297887  0.80706308    -0.02380
C4804       C  0.59631505  0.05926929  0.83103904     0.07300
C4805       C  0.57845023  0.04459092  0.83837023    -0.02490
C4806       C  0.56282648  0.03468282  0.82209033    -0.02500
C4807       C  0.56417415  0.03986498  0.79815144     0.07430
C4808       C  0.58157533  0.05523228  0.79128663    -0.02690
Br4809     Br  0.57958944  0.07021374  0.76182279    -0.01240
Br4810     Br  0.62590087  0.07658206  0.79502165    -0.01310
Br4811     Br  0.53877491  0.01514097  0.83313103    -0.01270
Br4812     Br  0.57490446  0.03864814  0.87078517    -0.01260
C4813       C  0.32032907  0.54535746  0.94386718    -0.02380
C4814       C  0.29710922  0.53917392  0.93777649     0.07300
C4815       C  0.29011681  0.54439791  0.91468634    -0.02490
C4816       C  0.30495180  0.55640448  0.89927568    -0.02500
C4817       C  0.32768360  0.56259370  0.90559895     0.07430
C4818       C  0.33523265  0.55665460  0.92792604    -0.02690
Br4819     Br  0.36587956  0.56581683  0.93720359    -0.01240
Br4820     Br  0.33277383  0.53943574  0.97420728    -0.01310
Br4821     Br  0.29379749  0.56502568  0.86910923    -0.01270
Br4822     Br  0.26011727  0.53559221  0.90305347    -0.01260
C4823       C  0.21152524  0.58324863  0.95000602    -0.02380
C4824       C  0.20305843  0.56268319  0.96032660     0.07300
C4825       C  0.17867659  0.55896224  0.95863838    -0.02490
C4826       C  0.16380460  0.57464639  0.94673003    -0.02500
C4827       C  0.17249724  0.59458101  0.93611718     0.07430
C4828       C  0.19643597  0.59893525  0.93848448    -0.02690
Br4829     Br  0.20874811  0.62717507  0.92622496    -0.01240
Br4830     Br  0.24418606  0.58995987  0.94948712    -0.01310
Br4831     Br  0.13130477  0.56818178  0.94370930    -0.01270
Br4832     Br  0.16465634  0.53218922  0.97203045    -0.01260
C4833       C  0.32058348  0.46066380  0.93979215    -0.02380
C4834       C  0.29601720  0.46012782  0.93767114     0.07300
C4835       C  0.28691239  0.44791741  0.91850206    -0.02490
C4836       C  0.30166757  0.43661907  0.90259726    -0.02500
C4837       C  0.32588392  0.43564479  0.90570949     0.07430
C4838       C  0.33521257  0.44843974  0.92418090    -0.02690
Br4839     Br  0.36818059  0.44868655  0.92855260    -0.01240
Br4840     Br  0.33484250  0.47847374  0.96378897    -0.01310
Br4841     Br  0.28852320  0.42380983  0.87514775    -0.01270
Br4842     Br  0.25396996  0.44468427  0.91416874    -0.01260
C4843       C  0.16988304  0.43292157  0.93039217    -0.02380
C4844       C  0.17285035  0.40893209  0.93135799     0.07300
C4845       C  0.19189680  0.40036318  0.94391967    -0.02490
C4846       C  0.20777970  0.41538701  0.95514774    -0.02500
C4847       C  0.20391641  0.43962794  0.95600231     0.07430
C4848       C  0.18495475  0.44807103  0.94249639    -0.02690
Br4849     Br  0.18056755  0.48054127  0.93743737    -0.01240
Br4850     Br  0.14506795  0.44503435  0.91166495    -0.01310
Br4851     Br  0.23610665  0.40204110  0.96640348    -0.01270
Br4852     Br  0.19651547  0.36757578  0.94502722    -0.01260
C4853       C  0.32279957  0.46345626  0.05806693    -0.02380
C4854       C  0.29852162  0.46300630  0.06254539     0.07300
C4855       C  0.29166236  0.45327268  0.08400941    -0.02490
C4856       C  0.30826777  0.44454371  0.09999176    -0.02500
C4857       C  0.33204881  0.44350016  0.09462927     0.07430
C4858       C  0.33907582  0.45317757  0.07352930    -0.02690
Br4859     Br  0.37117440  0.45098906  0.06519345    -0.01240
Br4860     Br  0.33471882  0.47841630  0.03094765    -0.01310
Br4861     Br  0.29842096  0.43434382  0.12998460    -0.01270
Br4862     Br  0.25940649  0.45001012  0.09169987    -0.01260
C4863       C  0.20302100  0.41533373  0.03895060    -0.02380
C4864       C  0.20179193  0.43970256  0.04127099     0.07300
C4865       C  0.18369101  0.44819584  0.05566717    -0.02490
C4866       C  0.16688596  0.43329585  0.06556594    -0.02500
C4867       C  0.16736372  0.40936449  0.06180113     0.07430
C4868       C  0.18578243  0.40059748  0.04852739    -0.02690
Br4869     Br  0.18807956  0.36782165  0.04472972    -0.01240
Br4870     Br  0.22946579  0.40115993  0.02501737    -0.01310
Br4871     Br  0.14319577  0.44565041  0.08534447    -0.01270
Br4872     Br  0.18323048  0.47989395  0.06526496    -0.01260
C4873       C  0.31284106  0.55778676  0.05240640    -0.02380
C4874       C  0.29857771  0.53972214  0.06053839     0.07300
C4875       C  0.30135131  0.53317278  0.08400317    -0.02490
C4876       C  0.31852262  0.54351664  0.09836761    -0.02500
C4877       C  0.33317989  0.56093960  0.08985625     0.07430
C4878       C  0.33001438  0.56789226  0.06668376    -0.02690
Br4879     Br  0.34953436  0.59161113  0.05417976    -0.01240
Br4880     Br  0.30715825  0.57119903  0.02246192    -0.01310
Br4881     Br  0.32092832  0.53486330  0.13033525    -0.01270
Br4882     Br  0.28106395  0.51072820  0.09717978    -0.01260
C4883       C  0.18006204  0.55867491  0.04450750    -0.02380
C4884       C  0.20421376  0.56289531  0.04128557     0.07300
C4885       C  0.21271155  0.58405679  0.05039630    -0.02490
C4886       C  0.19802133  0.59959127  0.06255502    -0.02500
C4887       C  0.17441163  0.59474734  0.06640377     0.07430
C4888       C  0.16557715  0.57435279  0.05677212    -0.02690
Br4889     Br  0.13343256  0.56727981  0.06156335    -0.01240
Br4890     Br  0.16572361  0.53131645  0.03263800    -0.01310
Br4891     Br  0.21028074  0.62838509  0.07351247    -0.01270
Br4892     Br  0.24489857  0.59221764  0.04778490    -0.01260
C4893       C  0.41942401  0.31428445  0.92825404    -0.02380
C4894       C  0.42988731  0.32645514  0.90967197     0.07300
C4895       C  0.45403682  0.32333649  0.90697727    -0.02490
C4896       C  0.46686720  0.30819663  0.92174362    -0.02500
C4897       C  0.45606572  0.29469106  0.93891665     0.07430
C4898       C  0.43208262  0.29819020  0.94194142    -0.02690
Br4899     Br  0.41615561  0.28047336  0.96504202    -0.01240
Br4900     Br  0.38817380  0.32123153  0.93741293    -0.01310
Br4901     Br  0.49965641  0.30752673  0.91959832    -0.01270
Br4902     Br  0.46991996  0.33962777  0.88289401    -0.01260
C4903       C  0.41049511  0.17502305  0.95351152    -0.02380
C4904       C  0.41512946  0.16958040  0.93022225     0.07300
C4905       C  0.43522762  0.17955603  0.92039425    -0.02490
C4906       C  0.44918665  0.19537993  0.93292996    -0.02500
C4907       C  0.44428737  0.20120213  0.95609912     0.07430
C4908       C  0.42413070  0.19135380  0.96578598    -0.02690
Br4909     Br  0.41342791  0.20159117  0.99515695    -0.01240
Br4910     Br  0.38541348  0.16007134  0.96905780    -0.01310
Br4911     Br  0.47312353  0.21170114  0.91687519    -0.01270
Br4912     Br  0.44527875  0.17036426  0.89010599    -0.01260
C4913       C  0.57044696  0.33529122  0.94018279    -0.02380
C4914       C  0.56879747  0.33196941  0.91605907     0.07300
C4915       C  0.56038977  0.31062100  0.90826712    -0.02490
C4916       C  0.55327871  0.29330256  0.92405462    -0.02500
C4917       C  0.55377641  0.29700094  0.94828299     0.07430
C4918       C  0.56278760  0.31822915  0.95607414    -0.02690
Br4919     Br  0.56457356  0.32419667  0.98866351    -0.01240
Br4920     Br  0.58410366  0.36319956  0.95146632    -0.01310
Br4921     Br  0.54337819  0.26417883  0.91193279    -0.01270
Br4922     Br  0.55931755  0.30486487  0.87555958    -0.01260
C4923       C  0.56324988  0.16437834  0.93339122    -0.02380
C4924       C  0.58702644  0.16981175  0.93274495     0.07300
C4925       C  0.59340999  0.19261704  0.93778181    -0.02490
C4926       C  0.57664854  0.20940859  0.94387996    -0.02500
C4927       C  0.55289267  0.20374527  0.94579420     0.07430
C4928       C  0.54645582  0.18094869  0.94028361    -0.02690
Br4929     Br  0.51460551  0.17209584  0.94256792    -0.01240
Br4930     Br  0.55360358  0.13434757  0.92357606    -0.01310
Br4931     Br  0.58689268  0.24010685  0.95036663    -0.01270
Br4932     Br  0.62558018  0.20086234  0.93625416    -0.01260
C4933       C  0.53878421  0.32099027  0.05722579    -0.02380
C4934       C  0.54328395  0.29699476  0.05684659     0.07300
C4935       C  0.55955508  0.28860407  0.07318625    -0.02490
C4936       C  0.57001608  0.30321720  0.08980131    -0.02500
C4937       C  0.56686242  0.32739694  0.08925189     0.07430
C4938       C  0.55076503  0.33600567  0.07281323    -0.02690
Br4939     Br  0.54542820  0.36854565  0.07116322    -0.01240
Br4940     Br  0.51561696  0.33335700  0.03680833    -0.01310
Br4941     Br  0.58706965  0.28911835  0.11478284    -0.01270
Br4942     Br  0.56986906  0.25715876  0.07171742    -0.01260
C4943       C  0.59113377  0.17176415  0.03840411    -0.02380
C4944       C  0.58822415  0.16568193  0.06185156     0.07300
C4945       C  0.56988408  0.17693074  0.07386271    -0.02490
C4946       C  0.55607342  0.19424469  0.06318803    -0.02500
C4947       C  0.55989927  0.20123143  0.04014798     0.07430
C4948       C  0.57741417  0.18941303  0.02798069    -0.02690
Br4949     Br  0.58210741  0.19657811  0.99645871    -0.01240
Br4950     Br  0.61360348  0.15591007  0.01994099    -0.01310
Br4951     Br  0.53172255  0.20876743  0.08068759    -0.01270
Br4952     Br  0.56189152  0.16793151  0.10493020    -0.01260
C4953       C  0.43570062  0.33420648  0.06829853    -0.02380
C4954       C  0.43979365  0.33341402  0.09221781     0.07300
C4955       C  0.45432840  0.31588687  0.10082363    -0.02490
C4956       C  0.46454353  0.29935481  0.08581349    -0.02500
C4957       C  0.45975898  0.29942209  0.06165548     0.07430
C4958       C  0.44517802  0.31749356  0.05321303    -0.02690
Br4959     Br  0.43616028  0.31960359  0.02111963    -0.01240
Br4960     Br  0.41648172  0.35861589  0.05619137    -0.01310
Br4961     Br  0.48537660  0.27703508  0.09907014    -0.01270
Br4962     Br  0.45903738  0.31379367  0.13366172    -0.01260
C4963       C  0.40075670  0.19586207  0.06640861    -0.02380
C4964       C  0.40569147  0.17215901  0.06863408     0.07300
C4965       C  0.42606238  0.16388506  0.05825952    -0.02490
C4966       C  0.44135317  0.17896298  0.04639252    -0.02500
C4967       C  0.43710294  0.20313265  0.04525020     0.07430
C4968       C  0.41634915  0.21121457  0.05550819    -0.02690
Br4969     Br  0.40918336  0.24361004  0.05617323    -0.01240
Br4970     Br  0.37171391  0.20739005  0.07757099    -0.01310
Br4971     Br  0.46767324  0.16560350  0.03106114    -0.01270
Br4972     Br  0.43364387  0.13180673  0.06139006    -0.01260
C4973       C  0.93595538  0.33539954  0.56827880    -0.02380
C4974       C  0.91236998  0.32927198  0.56973631     0.07300
C4975       C  0.90632443  0.30673370  0.56311553    -0.02490
C4976       C  0.92315103  0.29086828  0.55509637    -0.02500
C4977       C  0.94680752  0.29687692  0.55357700     0.07430
C4978       C  0.95294523  0.31944462  0.56030778    -0.02690
Br4979     Br  0.98477724  0.32854849  0.55881194    -0.01240
Br4980     Br  0.94514483  0.36538725  0.57859021    -0.01310
Br4981     Br  0.91359649  0.26002706  0.54833194    -0.01270
Br4982     Br  0.87468051  0.29708428  0.56610284    -0.01260
C4983       C  0.92911064  0.16535460  0.56102628    -0.02380
C4984       C  0.92949586  0.16946402  0.58506129     0.07300
C4985       C  0.93905039  0.19039524  0.59270253    -0.02490
C4986       C  0.94797394  0.20678031  0.57683848    -0.02500
C4987       C  0.94709232  0.20301342  0.55263102     0.07430
C4988       C  0.93782083  0.18181365  0.54503061    -0.02690
Br4989     Br  0.93768742  0.17481775  0.51259673    -0.01240
Br4990     Br  0.91597077  0.13710696  0.55001133    -0.01310
Br4991     Br  0.96005397  0.23513635  0.58875115    -0.01270
Br4992     Br  0.93882486  0.19707086  0.62525078    -0.01260
C4993       C  0.91536467  0.29704077  0.46328125    -0.02380
C4994       C  0.93947589  0.29654953  0.45860759     0.07300
C4995       C  0.94722650  0.31202860  0.44109558    -0.02490
C4996       C  0.93182229  0.32743323  0.42955795    -0.02500
C4997       C  0.90784685  0.32717766  0.43371653     0.07430
C4998       C  0.89978009  0.31088902  0.44997440    -0.02690
Br4999     Br  0.86718360  0.30496898  0.45192067    -0.01240
Br5000     Br  0.90317759  0.27997865  0.48885766    -0.01310
Br5001     Br  0.94348717  0.34846405  0.40665437    -0.01270
Br5002     Br  0.97876187  0.31166294  0.43075275    -0.01260
C5003       C  0.95481552  0.16831532  0.41944636    -0.02380
C5004       C  0.93099273  0.17215622  0.41382728     0.07300
C5005       C  0.92008973  0.19069941  0.42592096    -0.02490
C5006       C  0.93281994  0.20555883  0.44072934    -0.02500
C5007       C  0.95635358  0.20174882  0.44587937     0.07430
C5008       C  0.96651843  0.18188500  0.43638701    -0.02690
Br5009     Br  0.99582077  0.17189628  0.44844393    -0.01240
Br5010     Br  0.97303784  0.14552469  0.40389304    -0.01310
Br5011     Br  0.91711215  0.23061115  0.45541567    -0.01270
Br5012     Br  0.88716870  0.19641190  0.42396629    -0.01260
C5013       C  0.09860786  0.32158538  0.45911031    -0.02380
C5014       C  0.09293694  0.33157824  0.43752435     0.07300
C5015       C  0.07244248  0.32383009  0.42650571    -0.02490
C5016       C  0.05868436  0.30624721  0.43624167    -0.02500
C5017       C  0.06359289  0.29701224  0.45827092     0.07430
C5018       C  0.08411867  0.30455666  0.46935309    -0.02690
Br5019     Br  0.09323282  0.29086102  0.49810024    -0.01240
Br5020     Br  0.12696589  0.33016731  0.47417416    -0.01310
Br5021     Br  0.03492090  0.29238743  0.41754425    -0.01270
Br5022     Br  0.06217956  0.33776012  0.39798190    -0.01260
C5023       C  0.03512207  0.19975348  0.41498074    -0.02380
C5024       C  0.04333546  0.20256332  0.43799234     0.07300
C5025       C  0.06205027  0.18829652  0.44509554    -0.02490
C5026       C  0.07169211  0.17162410  0.43006602    -0.02500
C5027       C  0.06349635  0.16885922  0.40725853     0.07430
C5028       C  0.04504594  0.18306522  0.39992352    -0.02690
Br5029     Br  0.03403622  0.18032662  0.36867851    -0.01240
Br5030     Br  0.00975551  0.21819807  0.40378929    -0.01310
Br5031     Br  0.09634661  0.15202006  0.44105060    -0.01270
Br5032     Br  0.07644641  0.19254719  0.47489196    -0.01260
C5033       C  0.07540419  0.28824505  0.55890847    -0.02380
C5034       C  0.05758768  0.29692564  0.54425533     0.07300
C5035       C  0.05661474  0.32112125  0.54133910    -0.02490
C5036       C  0.07198467  0.33605543  0.55353389    -0.02500
C5037       C  0.08934013  0.32730476  0.56853875     0.07430
C5038       C  0.09109992  0.30312440  0.57046475    -0.02690
Br5039     Br  0.11636786  0.28985991  0.58776967    -0.01240
Br5040     Br  0.07876495  0.25563738  0.56397293    -0.01310
Br5041     Br  0.06853929  0.36874208  0.55009960    -0.01270
Br5042     Br  0.03547914  0.33396787  0.51905231    -0.01260
C5043       C  0.05339267  0.19287206  0.60207262    -0.02380
C5044       C  0.06106999  0.17093151  0.59490893     0.07300
C5045       C  0.05548190  0.16417457  0.57225182    -0.02490
C5046       C  0.04360610  0.17925607  0.55672521    -0.02500
C5047       C  0.03729085  0.20219602  0.56320924     0.07430
C5048       C  0.04131387  0.20806634  0.58679097    -0.02690
Br5049     Br  0.03010103  0.23668100  0.59924260    -0.01240
Br5050     Br  0.05956523  0.20212400  0.63340810    -0.01310
Br5051     Br  0.03542065  0.16702355  0.52685771    -0.01270
Br5052     Br  0.06540206  0.13423785  0.56211052    -0.01260
C5053       C  0.30664866  0.94567100  0.43749337    -0.02380
C5054       C  0.29488336  0.93867680  0.45776965     0.07300
C5055       C  0.29851777  0.91570976  0.46524144    -0.02490
C5056       C  0.31371209  0.90053047  0.45315641    -0.02500
C5057       C  0.32540546  0.90764780  0.43296514     0.07430
C5058       C  0.32165477  0.93047891  0.42542477    -0.02690
Br5059     Br  0.33780270  0.94142885  0.39857278    -0.01240
Br5060     Br  0.30092100  0.97574561  0.42469355    -0.01310
Br5061     Br  0.31764738  0.86941490  0.46374620    -0.01270
Br5062     Br  0.28272192  0.90473365  0.49216861    -0.01260
C5063       C  0.17899898  0.95167057  0.44573723    -0.02380
C5064       C  0.20120940  0.95960892  0.43819594     0.07300
C5065       C  0.20679387  0.95512698  0.41462353    -0.02490
C5066       C  0.19133235  0.94293390  0.39981384    -0.02500
C5067       C  0.16997219  0.93450386  0.40780631     0.07430
C5068       C  0.16383148  0.93946888  0.43069343    -0.02690
Br5069     Br  0.13437977  0.92858040  0.44157930    -0.01240
Br5070     Br  0.16843598  0.95594856  0.47700922    -0.01310
Br5071     Br  0.19906833  0.93805164  0.36786387    -0.01270
Br5072     Br  0.23583588  0.96484229  0.40174741    -0.01260
C5073       C  0.33394313  0.92296411  0.54728661    -0.02380
C5074       C  0.32485180  0.90669610  0.56302304     0.07300
C5075       C  0.30062203  0.90672788  0.56602631    -0.02490
C5076       C  0.28615685  0.92334784  0.55557224    -0.02500
C5077       C  0.29499540  0.93944546  0.53973486     0.07430
C5078       C  0.31912946  0.93877195  0.53540614    -0.02690
Br5079     Br  0.33201432  0.95904838  0.51261290    -0.01240
Br5080     Br  0.36674486  0.92462779  0.54256854    -0.01310
Br5081     Br  0.25432112  0.92493291  0.56501210    -0.01270
Br5082     Br  0.28631005  0.88268413  0.58307458    -0.01260
C5083       C  0.18210324  0.95336464  0.59693185    -0.02380
C5084       C  0.17173100  0.93266961  0.58962065     0.07300
C5085       C  0.17824021  0.92418662  0.56765868    -0.02490
C5086       C  0.19330654  0.93680368  0.55296258    -0.02500
C5087       C  0.20256415  0.95833570  0.55973286     0.07430
C5088       C  0.19694665  0.96611663  0.58215289    -0.02690
Br5089     Br  0.20945550  0.99441047  0.59303266    -0.01240
Br5090     Br  0.17862844  0.96273916  0.62847330    -0.01310
Br5091     Br  0.20286721  0.92327859  0.52416938    -0.01270
Br5092     Br  0.16699691  0.89470326  0.55763871    -0.01260
C5093       C  0.32023843  0.05893350  0.54093416    -0.02380
C5094       C  0.29600927  0.06333878  0.53889013     0.07300
C5095       C  0.28799077  0.08452268  0.54835993    -0.02490
C5096       C  0.30332050  0.09981857  0.55993707    -0.02500
C5097       C  0.32656052  0.09384818  0.56440985     0.07430
C5098       C  0.33502976  0.07362578  0.55402965    -0.02690
Br5099     Br  0.36714416  0.06587925  0.55809912    -0.01240
Br5100     Br  0.33413429  0.03335327  0.52503137    -0.01310
Br5101     Br  0.29317620  0.13039319  0.56769342    -0.01270
Br5102     Br  0.25578226  0.09302880  0.54703257    -0.01260
C5103       C  0.18025974  0.05272297  0.55310456    -0.02380
C5104       C  0.20291448  0.04499599  0.55968745     0.07300
C5105       C  0.21015186  0.05076471  0.58255383    -0.02490
C5106       C  0.19476476  0.06139731  0.59839675    -0.02500
C5107       C  0.17254379  0.06881882  0.59179997     0.07430
C5108       C  0.16563228  0.06469400  0.56887653    -0.02690
Br5109     Br  0.13625280  0.07683628  0.55881936    -0.01240
Br5110     Br  0.16874450  0.04882674  0.52208748    -0.01310
Br5111     Br  0.20378080  0.06522991  0.62999054    -0.01270
Br5112     Br  0.24163590  0.04606406  0.59287060    -0.01260
C5113       C  0.29219919  0.08562636  0.45949474    -0.02380
C5114       C  0.29780033  0.06179139  0.46144616     0.07300
C5115       C  0.32018951  0.05511819  0.45331453    -0.02490
C5116       C  0.33510953  0.07110605  0.44216685    -0.02500
C5117       C  0.32855176  0.09418304  0.43886532     0.07430
C5118       C  0.30708471  0.10125704  0.44789763    -0.02690
Br5119     Br  0.29789739  0.13287465  0.44394655    -0.01240
Br5120     Br  0.26453446  0.09808172  0.47319747    -0.01310
Br5121     Br  0.36435901  0.06113319  0.42988141    -0.01270
Br5122     Br  0.33152285  0.02411181  0.45685809    -0.01260
C5123       C  0.21064076  0.05126974  0.41681038    -0.02380
C5124       C  0.20248254  0.03829725  0.43586866     0.07300
C5125       C  0.17807909  0.03595796  0.43796636    -0.02490
C5126       C  0.16255629  0.04711988  0.42238018    -0.02500
C5127       C  0.17080255  0.06037547  0.40377756     0.07430
C5128       C  0.19504837  0.06149619  0.40076669    -0.02690
Br5129     Br  0.20726427  0.07617700  0.37367595    -0.01240
Br5130     Br  0.24324903  0.05713681  0.41311244    -0.01310
Br5131     Br  0.12975279  0.04523772  0.42735833    -0.01270
Br5132     Br  0.16524987  0.01713594  0.46199321    -0.01260
C5133       C  0.55474233  0.92067873  0.33183127    -0.02380
C5134       C  0.57004124  0.90450712  0.32177483     0.07300
C5135       C  0.57065268  0.90361452  0.29731554    -0.02490
C5136       C  0.55841390  0.91981410  0.28349905    -0.02500
C5137       C  0.54370692  0.93657985  0.29354340     0.07430
C5138       C  0.54148939  0.93615606  0.31793113    -0.02690
Br5139     Br  0.51932774  0.95608724  0.33258647    -0.01240
Br5140     Br  0.55224508  0.92239570  0.36488415    -0.01310
Br5141     Br  0.56340943  0.91937688  0.25059912    -0.01270
Br5142     Br  0.58674073  0.87887730  0.28203304    -0.01260
C5143       C  0.55125807  0.94844654  0.18155084    -0.02380
C5144       C  0.56019837  0.96194350  0.20012110     0.07300
C5145       C  0.58467904  0.96420969  0.20133131    -0.02490
C5146       C  0.59941646  0.95284949  0.18528247    -0.02500
C5147       C  0.59037380  0.93944107  0.16713775     0.07430
C5148       C  0.56617804  0.93755874  0.16541166    -0.02690
Br5149     Br  0.55353139  0.91876466  0.14110129    -0.01240
Br5150     Br  0.51855867  0.94261495  0.17846902    -0.01310
Br5151     Br  0.63244499  0.95449385  0.18882090    -0.01270
Br5152     Br  0.59877174  0.98285910  0.22486352    -0.01260
C5153       C  0.46715050  0.91568296  0.30072290    -0.02380
C5154       C  0.45990700  0.93881424  0.29744631     0.07300
C5155       C  0.43991455  0.94586934  0.30975211    -0.02490
C5156       C  0.42805016  0.93081881  0.32496186    -0.02500
C5157       C  0.43541959  0.90792530  0.32841918     0.07430
C5158       C  0.45518868  0.90056517  0.31609366    -0.02690
Br5159     Br  0.46521014  0.86920096  0.31940256    -0.01240
Br5160     Br  0.49345158  0.90433320  0.28410635    -0.01310
Br5161     Br  0.40146238  0.94195181  0.34160596    -0.01270
Br5162     Br  0.42688084  0.97575526  0.30442063    -0.01260
C5163       C  0.43284306  0.96901297  0.18309746    -0.02380
C5164       C  0.43912290  0.95979889  0.20484305     0.07300
C5165       C  0.43164989  0.93727612  0.20961333    -0.02490
C5166       C  0.41901382  0.92428159  0.19309951    -0.02500
C5167       C  0.40943493  0.93467634  0.17274371     0.07430
C5168       C  0.41678583  0.95761773  0.16823131    -0.02690
Br5169     Br  0.40635790  0.97412515  0.14142411    -0.01240
Br5170     Br  0.44762365  0.99662334  0.17262624    -0.01310
Br5171     Br  0.41861942  0.89142156  0.19811315    -0.01270
Br5172     Br  0.44038797  0.92301047  0.23831737    -0.01260
C5173       C  0.42114034  0.06966354  0.31869339    -0.02380
C5174       C  0.43044319  0.09008725  0.32825490     0.07300
C5175       C  0.45338505  0.09575872  0.32206890    -0.02490
C5176       C  0.46648396  0.08147809  0.30689722    -0.02500
C5177       C  0.45725071  0.06097013  0.29756882     0.07430
C5178       C  0.43402058  0.05592815  0.30305101    -0.02690
Br5179     Br  0.41848604  0.03176585  0.28671727    -0.01240
Br5180     Br  0.39099055  0.05913250  0.32792920    -0.01310
Br5181     Br  0.49679219  0.09084706  0.29812720    -0.01270
Br5182     Br  0.46674118  0.12380651  0.33347648    -0.01260
C5183       C  0.41577138  0.03549550  0.20405113    -0.02380
C5184       C  0.43927010  0.04229548  0.20606510     0.07300
C5185       C  0.44662330  0.06085387  0.19193401    -0.02490
C5186       C  0.43118559  0.07190571  0.17632466    -0.02500
C5187       C  0.40791058  0.06500768  0.17427974     0.07430
C5188       C  0.40045139  0.04660587  0.18823113    -0.02690
Br5189     Br  0.36874332  0.03714469  0.18612740    -0.01240
Br5190     Br  0.40422774  0.01055158  0.22247824    -0.01310
Br5191     Br  0.44201827  0.09692815  0.15747524    -0.01270
Br5192     Br  0.47747175  0.07300378  0.19504441    -0.01260
C5193       C  0.55378341  0.08214823  0.29087918    -0.02380
C5194       C  0.54573220  0.06011658  0.29829181     0.07300
C5195       C  0.55084485  0.05412253  0.32175788    -0.02490
C5196       C  0.56306723  0.06936308  0.33675156    -0.02500
C5197       C  0.57035930  0.09122323  0.32934476     0.07430
C5198       C  0.56552360  0.09737910  0.30626675    -0.02690
Br5199     Br  0.57490259  0.12737486  0.29583415    -0.01240
Br5200     Br  0.54957077  0.09229108  0.25943352    -0.01310
Br5201     Br  0.57100149  0.05990689  0.36765647    -0.01270
Br5202     Br  0.54155428  0.02495473  0.33450549    -0.01260
C5203       C  0.55699991  0.04056306  0.17880835    -0.02380
C5204       C  0.56270130  0.03852846  0.20276526     0.07300
C5205       C  0.58484216  0.04692938  0.20959549    -0.02490
C5206       C  0.60008898  0.05714575  0.19334576    -0.02500
C5207       C  0.59375666  0.06013532  0.17002572     0.07430
C5208       C  0.57211549  0.05164260  0.16295580    -0.02690
Br5209     Br  0.56265279  0.05652726  0.13143908    -0.01240
Br5210     Br  0.52865352  0.02802160  0.16660839    -0.01310
Br5211     Br  0.63032355  0.06703752  0.20292522    -0.01270
Br5212     Br  0.59477361  0.04608860  0.24141568    -0.01260
C5213       C  0.91642699  0.46205532  0.29530982    -0.02380
C5214       C  0.94036982  0.45671764  0.29467974     0.07300
C5215       C  0.94810981  0.43852397  0.30931267    -0.02490
C5216       C  0.93247613  0.42616958  0.32364556    -0.02500
C5217       C  0.90862018  0.43128772  0.32386996     0.07430
C5218       C  0.90093458  0.44950432  0.30964166    -0.02690
Br5219     Br  0.86871817  0.45683040  0.30923838    -0.01240
Br5220     Br  0.90449861  0.48713835  0.27707752    -0.01310
Br5221     Br  0.94383595  0.40205750  0.34349356    -0.01270
Br5222     Br  0.98002961  0.42890494  0.30901842    -0.01260
C5223       C  0.95865228  0.41417992  0.20709297    -0.02380
C5224       C  0.96335577  0.43750141  0.20099253     0.07300
C5225       C  0.95720121  0.44411051  0.17790614    -0.02490
C5226       C  0.94536542  0.42879121  0.16272813    -0.02500
C5227       C  0.94046832  0.40603419  0.16921157     0.07430
C5228       C  0.94817076  0.39870870  0.19112788    -0.02690
Br5229     Br  0.94478402  0.36668623  0.19885837    -0.01240
Br5230     Br  0.96496117  0.40264847  0.23767098    -0.01310
Br5231     Br  0.93464890  0.43923057  0.13299026    -0.01270
Br5232     Br  0.96434897  0.47420514  0.16591163    -0.01260
C5233       C  0.91122062  0.57136076  0.30342989    -0.02380
C5234       C  0.90751180  0.56388798  0.32648069     0.07300
C5235       C  0.92005093  0.54398389  0.33351281    -0.02490
C5236       C  0.93528889  0.53220762  0.31804880    -0.02500
C5237       C  0.93925004  0.54029134  0.29530487     0.07430
C5238       C  0.92795384  0.56087761  0.28896808    -0.02690
Br5239     Br  0.93841769  0.57763139  0.26242033    -0.01240
Br5240     Br  0.89218547  0.59483723  0.28988644    -0.01310
Br5241     Br  0.95168687  0.50538120  0.32861440    -0.01270
Br5242     Br  0.91779251  0.53312394  0.36475480    -0.01260
C5243       C  0.97100189  0.56916817  0.18108033    -0.02380
C5244       C  0.95997960  0.55933827  0.20045466     0.07300
C5245       C  0.93579155  0.56218213  0.20133672    -0.02490
C5246       C  0.92377362  0.57756958  0.18623042    -0.02500
C5247       C  0.93545570  0.59034310  0.16849117     0.07430
C5248       C  0.95943957  0.58506996  0.16601512    -0.02690
Br5249     Br  0.97726493  0.59812803  0.14142526    -0.01240
Br5250     Br  0.00059901  0.55730305  0.17233094    -0.01310
Br5251     Br  0.89067265  0.57896137  0.19030510    -0.01270
Br5252     Br  0.91833870  0.54144088  0.22053214    -0.01260
C5253       C  0.08595348  0.54469787  0.29296176    -0.02380
C5254       C  0.06285718  0.53861547  0.29915804     0.07300
C5255       C  0.05639542  0.54343851  0.32252937    -0.02490
C5256       C  0.07163913  0.55501749  0.33807224    -0.02500
C5257       C  0.09399704  0.56165381  0.33137701     0.07430
C5258       C  0.10125937  0.55537067  0.30905825    -0.02690
Br5259     Br  0.13312677  0.56059991  0.30106570    -0.01240
Br5260     Br  0.09730234  0.54008509  0.26206858    -0.01310
Br5261     Br  0.06175036  0.56258042  0.36883698    -0.01270
Br5262     Br  0.02653103  0.53484532  0.33435543    -0.01260
C5263       C  0.03984197  0.58558689  0.20589672    -0.02380
C5264       C  0.04503873  0.56174308  0.20561390     0.07300
C5265       C  0.06288256  0.55450225  0.19045446    -0.02490
C5266       C  0.07344280  0.57004004  0.17473942    -0.02500
C5267       C  0.06799364  0.59369717  0.17483062     0.07430
C5268       C  0.05196692  0.60130445  0.19155195    -0.02690
Br5269     Br  0.04849247  0.63353447  0.19702873    -0.01240
Br5270     Br  0.01556280  0.59721684  0.22537958    -0.01310
Br5271     Br  0.09656294  0.55900893  0.15361650    -0.01270
Br5272     Br  0.07550939  0.52399545  0.19312079    -0.01260
C5273       C  0.08515957  0.45118872  0.29039919    -0.02380
C5274       C  0.06367781  0.46072748  0.29778965     0.07300
C5275       C  0.05888167  0.45927077  0.32194201    -0.02490
C5276       C  0.07446445  0.44826089  0.33759512    -0.02500
C5277       C  0.09539379  0.43854394  0.32997355     0.07430
C5278       C  0.10069599  0.44053970  0.30630090    -0.02690
Br5279     Br  0.12994322  0.42880189  0.29561180    -0.01240
Br5280     Br  0.09357836  0.45085892  0.25821128    -0.01310
Br5281     Br  0.06657180  0.44522809  0.36970530    -0.01270
Br5282     Br  0.03088680  0.47199115  0.33462261    -0.01260
C5283       C  0.06118409  0.42931783  0.16495474    -0.02380
C5284       C  0.06284222  0.40583374  0.17043118     0.07300
C5285       C  0.05261818  0.39836359  0.19112137    -0.02490
C5286       C  0.04184217  0.41410512  0.20661225    -0.02500
C5287       C  0.04044445  0.43812787  0.20156830     0.07430
C5288       C  0.04952216  0.44509702  0.17969673    -0.02690
Br5289     Br  0.04597443  0.47605262  0.16841101    -0.01240
Br5290     Br  0.07590451  0.43995391  0.13715127    -0.01310
Br5291     Br  0.02895249  0.40161218  0.23451775    -0.01270
Br5292     Br  0.05367125  0.36604097  0.19817210    -0.01260
loop_ 
_geom_bond_atom_site_label_1 
_geom_bond_atom_site_label_2 
_geom_bond_distance 
_geom_bond_site_symmetry_2 
_ccdc_geom_bond_type 
O1            C9   1.260       .  A
O1          Co21   1.989       .  S
O2           C10   1.257       .  A
O2          Co22   1.991   1_655  S
O3           C11   1.280       .  A
O3          Co23   2.076       .  S
O4           C12   1.279       .  A
O4          Co24   2.078       .  S
O5           C11   1.263       .  A
O5          Co22   1.994       .  S
O6           C12   1.261       .  A
O6          Co21   1.987   1_655  S
O7           C10   1.281       .  A
O7          Co24   2.088       .  S
O8            C9   1.276       .  A
O8          Co23   2.063       .  S
C9         C5274   1.545       .  S
C10        C5237   1.536       .  S
C11        C5254   1.555       .  S
C12        C5214   1.539       .  S
O13          C26   1.277       .  A
O13         Co21   2.075   1_655  S
O14          C27   1.274       .  A
O14         Co22   2.062       .  S
O15          C28   1.263       .  A
O15         Co23   1.996       .  S
O16          C29   1.258       .  A
O16         Co24   1.992       .  S
O17          C29   1.286       .  A
O17         Co22   2.103   1_655  S
O18          C28   1.278       .  A
O18         Co21   2.070       .  S
O19          C26   1.259       .  A
O19         Co24   1.989       .  S
O20          C27   1.263       .  A
O20         Co23   1.991       .  S
Co21         O25   2.150       .  S
Co22         O25   2.153       .  S
Co23         O25   2.145       .  S
Co24         O25   2.153   1_655  S
C26        C5224   1.553       .  S
C27        C5264   1.536       .  S
C28        C5287   1.552       .  S
C29        C5244   1.543       .  S
O30          C38   1.263       .  A
O30         Co50   1.989   1_545  S
O31          C39   1.263       .  A
O31         Co51   1.991   1_565  S
O32          C40   1.278       .  A
O32         Co52   2.077       .  S
O33          C41   1.276       .  A
O33         Co53   2.060       .  S
O34          C40   1.265       .  A
O34         Co51   1.995       .  S
O35          C41   1.262       .  A
O35         Co50   1.991       .  S
O36          C39   1.282       .  A
O36         Co53   2.086       .  S
O37          C38   1.281       .  A
O37         Co52   2.079       .  S
C38        C5194   1.557       .  S
C39        C5154   1.544       .  S
C40        C5177   1.535       .  S
C41        C5137   1.533       .  S
O42          C55   1.278       .  A
O42         Co50   2.076       .  S
O43          C56   1.276       .  A
O43         Co51   2.069       .  S
O44          C57   1.260       .  A
O44         Co52   1.989       .  S
O45          C58   1.257       .  A
O45         Co53   1.989       .  S
O46          C58   1.279       .  A
O46         Co51   2.083   1_565  S
O47          C57   1.275       .  A
O47         Co50   2.060   1_545  S
O48          C55   1.259       .  A
O48         Co53   1.988       .  S
O49          C56   1.261       .  A
O49         Co52   1.988       .  S
Co50         O54   2.161   1_565  S
Co51         O54   2.162       .  S
Co52         O54   2.147       .  S
Co53         O54   2.141   1_565  S
C55        C5144   1.542       .  S
C56        C5184   1.532       .  S
C57        C5204   1.544       .  S
C58        C5164   1.531       .  S
O59          C67   1.262       .  A
O59         Co79   1.988       .  S
O60          C68   1.261       .  A
O60         Co80   1.988       .  S
O61          C69   1.281       .  A
O61         Co81   2.087       .  S
O62          C70   1.277       .  A
O62         Co82   2.069       .  S
O63          C69   1.258       .  A
O63         Co80   1.981       .  S
O64          C70   1.261       .  A
O64         Co79   1.987       .  S
O65          C68   1.281       .  A
O65         Co82   2.082   1_565  S
O66          C67   1.277       .  A
O66         Co81   2.060   1_545  S
C67        C5124   1.535       .  S
C68        C5087   1.536       .  S
C69        C5064   1.553       .  S
C70        C5104   1.551       .  S
O71          C84   1.277       .  A
O71         Co79   2.069       .  S
O72          C85   1.279       .  A
O72         Co80   2.082       .  S
O73          C86   1.262       .  A
O73         Co81   1.998   1_545  S
O74          C87   1.260       .  A
O74         Co82   1.989   1_565  S
O75          C87   1.277       .  A
O75         Co80   2.052       .  S
O76          C86   1.276       .  A
O76         Co79   2.063       .  S
O77          C84   1.263       .  A
O77         Co82   1.993       .  S
O78          C85   1.262       .  A
O78         Co81   1.990       .  S
Co79         O83   2.147       .  S
Co80         O83   2.144   1_565  S
Co81         O83   2.143   1_565  S
Co82         O83   2.153       .  S
C84        C5094   1.547       .  S
C85        C5054   1.536       .  S
C86        C5114   1.549       .  S
C87        C5077   1.523       .  S
O88          C96   1.278       .  A
O88        Co108   2.021   1_455  S
O89          C97   1.265       .  A
O89        Co109   2.003   1_655  S
O90          C98   1.281       .  A
O90        Co110   2.067       .  S
O91          C99   1.300       .  A
O91        Co111   2.124       .  S
O92          C98   1.268       .  A
O92        Co109   1.994       .  S
O93          C99   1.277       .  A
O93        Co108   1.936       .  S
O94          C97   1.284       .  A
O94        Co111   2.076       .  S
O95          C96   1.278       .  A
O95        Co110   2.040       .  S
C96        C5034   1.540       .  S
C97        C4994   1.553       .  S
C98        C5017   1.529       .  S
C99        C4977   1.529       .  S
O100        C113   1.300       .  A
O100       Co108   2.127       .  S
O101        C114   1.279       .  A
O101       Co109   2.060       .  S
O102        C115   1.270       .  A
O102       Co110   2.008       .  S
O103        C116   1.274       .  A
O103       Co111   2.012       .  S
O104        C116   1.283       .  A
O104       Co109   2.069   1_655  S
O105        C115   1.283       .  A
O105       Co108   2.064   1_455  S
O106        C113   1.277       .  A
O106       Co111   1.931       .  S
O107        C114   1.267       .  A
O107       Co110   1.994       .  S
Co108       O112   2.048   1_655  S
Co109       O112   2.078       .  S
Co110       O112   2.074       .  S
Co111       O112   2.052   1_655  S
C113       C4987   1.532       .  S
C114       C5024   1.534       .  S
C115       C5047   1.556       .  S
C116       C5007   1.534       .  S
O117        C125   1.262       .  A
O117       Co137   1.985       .  S
O118        C126   1.278       .  A
O118       Co138   1.932       .  S
O119        C127   1.277       .  A
O119       Co139   2.044       .  S
O120        C128   1.282       .  A
O120       Co140   2.074       .  S
O121        C127   1.276       .  A
O121       Co138   2.028   1_554  S
O122        C128   1.266       .  A
O122       Co137   2.006   1_556  S
O123        C126   1.302       .  A
O123       Co140   2.127       .  S
O124        C125   1.280       .  A
O124       Co139   2.067       .  S
C125       C4957   1.539       .  S
C126       C4917   1.532       .  S
C127       C4934   1.541       .  S
C128       C4897   1.540       .  S
O129        C142   1.281       .  A
O129       Co137   2.060   1_556  S
O130        C143   1.287       .  A
O130       Co138   2.081   1_554  S
O131        C144   1.260       .  A
O131       Co139   1.978       .  S
O132        C145   1.275       .  A
O132       Co140   1.935       .  S
O133        C145   1.299       .  A
O133       Co138   2.121       .  S
O134        C144   1.281       .  A
O134       Co137   2.066       .  S
O135        C142   1.279       .  A
O135       Co140   2.016       .  S
O136        C143   1.264       .  A
O136       Co139   1.994       .  S
Co137       O141   2.076       .  S
Co138       O141   2.055   1_556  S
Co139       O141   2.091       .  S
Co140       O141   2.061   1_556  S
C142       C4907   1.537       .  S
C143       C4947   1.536       .  S
C144       C4967   1.539       .  S
C145       C4927   1.527       .  S
O146        C154   1.261       .  A
O146       Co166   1.986       .  S
O147        C155   1.263       .  A
O147       Co167   1.995   1_556  S
O148        C156   1.277       .  A
O148       Co168   2.066       .  S
O149        C157   1.276       .  A
O149       Co169   2.069       .  S
O150        C156   1.260       .  A
O150       Co167   1.989       .  S
O151        C157   1.260       .  A
O151       Co166   1.993   1_556  S
O152        C155   1.277       .  A
O152       Co169   2.060       .  S
O153        C154   1.279       .  A
O153       Co168   2.079       .  S
C154       C4874   1.534       .  S
C155       C4834   1.539       .  S
C156       C4854   1.544       .  S
C157       C4814   1.551       .  S
O158        C171   1.279       .  A
O158       Co166   2.070   1_556  S
O159        C172   1.281       .  A
O159       Co167   2.087       .  S
O160        C173   1.262       .  A
O160       Co168   1.993       .  S
O161        C174   1.263       .  A
O161       Co169   1.992       .  S
O162        C174   1.277       .  A
O162       Co167   2.073   1_556  S
O163        C173   1.279       .  A
O163       Co166   2.074       .  S
O164        C171   1.263       .  A
O164       Co169   1.990       .  S
O165        C172   1.262       .  A
O165       Co168   1.993       .  S
Co166       O170   2.137       .  S
Co167       O170   2.157       .  S
Co168       O170   2.150       .  S
Co169       O170   2.145   1_556  S
C171       C4824   1.548       .  S
C172       C4864   1.554       .  S
C173       C4884   1.553       .  S
C174       C4847   1.550       .  S
O175        C183   1.289       .  A
O175       Co195   2.095       .  S
O176        C184   1.301       .  A
O176       Co196   2.129       .  S
O177        C185   1.265       .  A
O177       Co197   2.002       .  S
O178        C186   1.282       .  A
O178       Co198   2.033   1_545  S
O179        C185   1.279       .  A
O179       Co196   2.064       .  S
O180        C186   1.274       .  A
O180       Co195   2.035       .  S
O181        C184   1.276       .  A
O181       Co198   1.936       .  S
O182        C183   1.261       .  A
O182       Co197   1.984   1_545  S
C183       C4797   1.534       .  S
C184       C4734   1.539       .  S
C185       C4754   1.537       .  S
C186       C4774   1.551       .  S
O187        C200   1.269       .  A
O187       Co195   2.009       .  S
O188        C201   1.278       .  A
O188       Co196   2.026       .  S
O189        C202   1.281       .  A
O189       Co197   2.065   1_545  S
O190        C203   1.299       .  A
O190       Co198   2.128       .  S
O191        C203   1.274       .  A
O191       Co196   1.933       .  S
O192        C202   1.261       .  A
O192       Co195   1.989       .  S
O193        C200   1.278       .  A
O193       Co198   2.047   1_545  S
O194        C201   1.277       .  A
O194       Co197   2.037       .  S
Co195       O199   2.084       .  S
Co196       O199   2.070   1_565  S
Co197       O199   2.074   1_565  S
Co198       O199   2.047   1_565  S
C200       C4784   1.544       .  S
C201       C4764   1.552       .  S
C202       C4807   1.525       .  S
C203       C4747   1.546       .  S
O204        C212   1.277       .  A
O204       Co224   2.062       .  S
O205        C213   1.282       .  A
O205       Co225   2.082       .  S
O206        C214   1.262       .  A
O206       Co226   1.991   1_556  S
O207        C215   1.256       .  A
O207       Co227   1.979       .  S
O208        C214   1.275       .  A
O208       Co225   2.068       .  S
O209        C215   1.278       .  A
O209       Co224   2.072       .  S
O210        C213   1.254       .  A
O210       Co227   1.984   1_556  S
O211        C212   1.262       .  A
O211       Co226   1.990       .  S
C212       C4714   1.545       .  S
C213       C4654   1.523       .  S
C214       C4677   1.543       .  S
C215       C4694   1.545       .  S
O216        C229   1.262       .  A
O216       Co224   1.991       .  S
O217        C230   1.259       .  A
O217       Co225   1.984       .  S
O218        C231   1.278       .  A
O218       Co226   2.063       .  S
O219        C232   1.283       .  A
O219       Co227   2.087   1_556  S
O220        C232   1.257       .  A
O220       Co225   1.992       .  S
O221        C231   1.263       .  A
O221       Co224   1.991       .  S
O222        C229   1.278       .  A
O222       Co227   2.074       .  S
O223        C230   1.277       .  A
O223       Co226   2.070   1_556  S
Co224       O228   2.138       .  S
Co225       O228   2.141   1_556  S
Co226       O228   2.134       .  S
Co227       O228   2.141       .  S
C229       C4704   1.539       .  S
C230       C4684   1.547       .  S
C231       C4724   1.544       .  S
C232       C4664   1.531       .  S
O233        C241   1.282       .  A
O233       Co253   2.085       .  S
O234        C242   1.277       .  A
O234       Co254   2.064       .  S
O235        C243   1.262       .  A
O235       Co255   1.992       .  S
O236        C244   1.260       .  A
O236       Co256   1.991   1_455  S
O237        C243   1.276       .  A
O237       Co254   2.065       .  S
O238        C244   1.277       .  A
O238       Co253   2.070       .  S
O239        C242   1.265       .  A
O239       Co256   2.004       .  S
O240        C241   1.260       .  A
O240       Co255   1.993   1_455  S
C241       C4637   1.541       .  S
C242       C4574   1.552       .  S
C243       C4594   1.547       .  S
C244       C4614   1.549       .  S
O245        C258   1.258       .  A
O245       Co253   1.985       .  S
O246        C259   1.262       .  A
O246       Co254   1.990       .  S
O247        C260   1.285       .  A
O247       Co255   2.098   1_455  S
O248        C261   1.279       .  A
O248       Co256   2.065       .  S
O249        C261   1.264       .  A
O249       Co254   1.994       .  S
O250        C260   1.257       .  A
O250       Co253   1.986       .  S
O251        C258   1.281       .  A
O251       Co256   2.089   1_455  S
O252        C259   1.275       .  A
O252       Co255   2.066       .  S
Co253       O257   2.142   1_455  S
Co254       O257   2.144       .  S
Co255       O257   2.146       .  S
Co256       O257   2.146       .  S
C258       C4624   1.547       .  S
C259       C4607   1.545       .  S
C260       C4647   1.537       .  S
C261       C4584   1.538       .  S
O262        C270   1.254       .  A
O262       Co282   1.984       .  S
O263        C271   1.263       .  A
O263       Co283   1.987       .  S
O264        C272   1.277       .  A
O264       Co284   2.076       .  S
O265        C273   1.280       .  A
O265       Co285   2.084   1_455  S
O266        C272   1.259       .  A
O266       Co283   1.985       .  S
O267        C273   1.252       .  A
O267       Co282   1.979       .  S
O268        C271   1.275       .  A
O268       Co285   2.068       .  S
O269        C270   1.283       .  A
O269       Co284   2.098   1_455  S
C270       C4564   1.534       .  S
C271       C4527   1.530       .  S
C272       C4504   1.551       .  S
C273       C4544   1.526       .  S
O274        C287   1.281       .  A
O274       Co282   2.092       .  S
O275        C288   1.279       .  A
O275       Co283   2.081       .  S
O276        C289   1.256       .  A
O276       Co284   1.986   1_455  S
O277        C290   1.259       .  A
O277       Co285   1.986       .  S
O278        C290   1.277       .  A
O278       Co283   2.061       .  S
O279        C289   1.277       .  A
O279       Co282   2.078       .  S
O280        C287   1.256       .  A
O280       Co285   1.988   1_455  S
O281        C288   1.261       .  A
O281       Co284   1.987       .  S
Co282       O286   2.152   1_455  S
Co283       O286   2.145       .  S
Co284       O286   2.148       .  S
Co285       O286   2.158       .  S
C287       C4534   1.535       .  S
C288       C4494   1.533       .  S
C289       C4557   1.547       .  S
C290       C4514   1.532       .  S
O291        C299   1.255       .  A
O291       Co311   1.981       .  S
O292        C300   1.261       .  A
O292       Co312   1.988   1_556  S
O293        C301   1.279       .  A
O293       Co313   2.072       .  S
O294        C302   1.286       .  A
O294       Co314   2.104       .  S
O295        C301   1.261       .  A
O295       Co312   1.989       .  S
O296        C302   1.258       .  A
O296       Co311   1.991   1_556  S
O297        C300   1.274       .  A
O297       Co314   2.068       .  S
O298        C299   1.278       .  A
O298       Co313   2.078       .  S
C299       C4477   1.544       .  S
C300       C4434   1.546       .  S
C301       C4457   1.549       .  S
C302       C4417   1.546       .  S
O303        C316   1.280       .  A
O303       Co311   2.081   1_556  S
O304        C317   1.279       .  A
O304       Co312   2.082       .  S
O305        C318   1.262       .  A
O305       Co313   1.988       .  S
O306        C319   1.259       .  A
O306       Co314   1.983       .  S
O307        C319   1.276       .  A
O307       Co312   2.068   1_556  S
O308        C318   1.280       .  A
O308       Co311   2.086       .  S
O309        C316   1.258       .  A
O309       Co314   1.988       .  S
O310        C317   1.263       .  A
O310       Co313   2.002       .  S
Co311       O315   2.150       .  S
Co312       O315   2.155       .  S
Co313       O315   2.150       .  S
Co314       O315   2.151   1_556  S
C316       C4424   1.541       .  S
C317       C4467   1.557       .  S
C318       C4484   1.536       .  S
C319       C4444   1.544       .  S
C320        C357   1.444       .  S
C320       C4384   1.415       .  S
C320        N338   1.337       .  A
N321        N338   1.309       .  A
N321        N343   1.318       .  A
N321       Co358   2.043       .  S
C322        C360   1.478       .  S
C322        N347   1.354       .  A
C322        H367   1.081       .  S
H323        C364   1.081       .  S
C324        C328   1.454       .  S
C324        N348   1.328       .  A
C324        H353   1.081       .  S
Co325       N343   2.024       .  S
Co325       N333   2.091       .  S
Co325       N365   2.050       .  S
Co325       N341   2.072       .  S
Co325      Cl369   2.478       .  S
N326        C364   1.350       .  A
N326        N333   1.314       .  A
N326       Co327   2.099       .  S
Co327       N330   2.065       .  S
Co327       N347   2.125       .  S
Co327       N334   2.054       .  S
Co327      Cl369   2.423       .  S
C328       C4364   1.450       .  S
C328        N366   1.338       .  A
N329        N336   1.311       .  A
N329        N359   1.345       .  A
N329       Co362   2.180       .  S
N330        N348   1.330       .  A
N330        N366   1.317       .  A
N331        C360   1.349       .  A
N331        N341   1.325       .  A
H332        C357   1.081       .  S
N333        N354   1.327       .  A
N334        N352   1.329       .  A
N334        N339   1.315       .  A
C335        C363   1.446       .  S
C335       C4354   1.428       .  S
C335        N339   1.335       .  A
N336        C351   1.337       .  A
N336       Co358   2.042       .  S
C337        C340   1.459       .  S
C337        N365   1.336       .  A
C337        H371   1.082       .  S
C340       C4374   1.424       .  S
C340        N361   1.320       .  A
N341        N347   1.316       .  A
N342        C368   1.340       .  A
N342        N344   1.310       .  A
N342       Co358   2.076       .  S
N343        C357   1.329       .  A
N344        N372   1.342       .  A
N344       Co362   2.149       .  S
H345        C368   1.082       .  S
H346        C363   1.081       .  S
N348       Co362   2.078       .  S
N349        N361   1.301       .  A
N349        N365   1.315       .  A
N349       Co358   2.003       .  S
C350        C364   1.471       .  S
C350       C4404   1.501       .  S
C350        N354   1.354       .  A
C351        C370   1.448       .  S
C351        H355   1.082       .  S
N352        C363   1.332       .  A
N352       Co362   2.079       .  S
C356        C368   1.459       .  S
C356       C4517   1.528       .  S
C356        N372   1.373       .  A
Co358      Cl369   2.402       .  S
N359        C370   1.377       .  A
C360       C4394   1.500       .  S
Co362      Cl369   2.472       .  S
C370       C4974   1.520       .  S
C373        C410   1.498       .  S
C373       C4914   1.519       .  S
C373        N391   1.340       .  A
N374        N391   1.324       .  A
N374        N396   1.308       .  A
N374       Co411   2.040       .  S
C375        C413   1.432       .  S
C375        N400   1.327       .  A
C375        H420   1.081       .  S
H376        C417   1.082       .  S
C377        C381   1.461       .  S
C377        N401   1.341       .  A
C377        H406   1.082       .  S
Co378       N396   2.169       .  S
Co378       N386   2.079       .  S
Co378       N418   2.164       .  S
Co378       N394   2.078       .  S
Co378      Cl422   2.443       .  S
N379        C417   1.328       .  A
N379        N386   1.329       .  A
N379       Co380   2.053       .  S
Co380       N383   2.104       .  S
Co380       N400   2.042       .  S
Co380       N387   2.114       .  S
Co380      Cl422   2.443       .  S
C381       C4347   1.497       .  S
C381        N419   1.360       .  A
N382        N389   1.319       .  A
N382        N412   1.311       .  A
N382       Co415   2.036       .  S
N383        N401   1.313       .  A
N383        N419   1.333       .  A
N384        C413   1.341       .  A
N384        N394   1.315       .  A
H385        C410   1.081       .  S
N386        N407   1.314       .  A
N387        N405   1.315       .  A
N387        N392   1.333       .  A
C388        C416   1.465       .  S
C388       C4397   1.504       .  S
C388        N392   1.359       .  A
N389        C404   1.322       .  A
N389       Co411   2.031       .  S
C390        C393   1.501       .  S
C390        N418   1.366       .  A
C390        H424   1.081       .  S
C393       C4657   1.535       .  S
C393        N414   1.349       .  A
N394        N400   1.329       .  A
N395        C421   1.309       .  A
N395        N397   1.314       .  A
N395       Co411   1.998       .  S
N396        C410   1.367       .  A
N397        N425   1.311       .  A
N397       Co415   2.026       .  S
H398        C421   1.074       .  S
H399        C416   1.082       .  S
N401       Co415   2.077       .  S
N402        N414   1.325       .  A
N402        N418   1.310       .  A
N402       Co411   2.070       .  S
C403        C417   1.439       .  S
C403       C4304   1.428       .  S
C403        N407   1.343       .  A
C404        C423   1.428       .  S
C404        H408   1.077       .  S
N405        C416   1.343       .  A
N405       Co415   2.090       .  S
C409        C421   1.422       .  S
C409       C4324   1.420       .  S
C409        N425   1.345       .  A
Co411      Cl422   2.428       .  S
N412        C423   1.341       .  A
C413       C4314   1.420       .  S
Co415      Cl422   2.450       .  S
C423       C4334   1.419       .  S
C426        C463   1.448       .  S
C426       C4287   1.404       .  S
C426        N444   1.320       .  A
N427        N444   1.297       .  A
N427        N449   1.315       .  A
N427       Co464   1.988       .  S
C428        C466   1.486       .  S
C428        N453   1.358       .  A
C428        H473   1.081       .  S
H429        C470   1.081       .  S
C430        C434   1.453       .  S
C430        N454   1.330       .  A
C430        H459   1.081       .  S
Co431       N449   2.021       .  S
Co431       N439   2.064       .  S
Co431       N471   2.009       .  S
Co431       N447   2.048       .  S
Co431      Cl475   2.453       .  S
N432        C470   1.352       .  A
N432        N439   1.316       .  A
N432       Co433   2.120       .  S
Co433       N436   2.053       .  S
Co433       N453   2.127       .  S
Co433       N440   2.053       .  S
Co433      Cl475   2.432       .  S
C434       C4254   1.435       .  S
C434        N472   1.336       .  A
N435        N442   1.312       .  A
N435        N465   1.339       .  A
N435       Co468   2.139       .  S
N436        N454   1.327       .  A
N436        N472   1.313       .  A
N437        C466   1.342       .  A
N437        N447   1.319       .  A
H438        C463   1.081       .  S
N439        N460   1.323       .  A
N440        N458   1.328       .  A
N440        N445   1.313       .  A
C441        C469   1.448       .  S
C441       C4264   1.434       .  S
C441        N445   1.336       .  A
N442        C457   1.347       .  A
N442       Co464   2.106       .  S
C443        C446   1.440       .  S
C443        N471   1.325       .  A
C443        H477   1.081       .  S
C446       C4274   1.418       .  S
C446        N467   1.342       .  A
N447        N453   1.313       .  A
N448        C474   1.336       .  A
N448        N450   1.311       .  A
N448       Co464   2.037       .  S
N449        C463   1.332       .  A
N450        N478   1.345       .  A
N450       Co468   2.179       .  S
H451        C474   1.082       .  S
H452        C469   1.082       .  S
N454       Co468   2.076       .  S
N455        N467   1.308       .  A
N455        N471   1.314       .  A
N455       Co464   2.043       .  S
C456        C470   1.476       .  S
C456       C4344   1.495       .  S
C456        N460   1.348       .  A
C457        C476   1.476       .  S
C457        H461   1.078       .  S
N458        C469   1.327       .  A
N458       Co468   2.063       .  S
C462        C474   1.443       .  S
C462       C4297   1.517       .  S
C462        N478   1.378       .  A
Co464      Cl475   2.395       .  S
N465        C476   1.371       .  A
C466       C4407   1.498       .  S
Co468      Cl475   2.470       .  S
C476       C4794   1.546       .  S
C479        C516   1.465       .  S
C479       C4387   1.441       .  S
C479        N497   1.327       .  A
N480        N497   1.306       .  A
N480        N502   1.313       .  A
N480       Co517   2.015       .  S
C481        C519   1.479       .  S
C481        N506   1.355       .  A
C481        H526   1.081       .  S
H482        C523   1.081       .  S
C483        C487   1.451       .  S
C483        N507   1.329       .  A
C483        H512   1.081       .  S
Co484       N502   2.038       .  S
Co484       N492   2.084       .  S
Co484       N524   2.026       .  S
Co484       N500   2.079       .  S
Co484      Cl528   2.469       .  S
N485        C523   1.351       .  A
N485        N492   1.315       .  A
N485       Co486   2.111       .  S
Co486       N489   2.044       .  S
Co486       N506   2.122       .  S
Co486       N493   2.064       .  S
Co486      Cl528   2.430       .  S
C487       C4204   1.422       .  S
C487        N525   1.335       .  A
N488        N495   1.312       .  A
N488        N518   1.343       .  A
N488       Co521   2.161       .  S
N489        N507   1.327       .  A
N489        N525   1.313       .  A
N490        C519   1.348       .  A
N490        N500   1.324       .  A
H491        C516   1.080       .  S
N492        N513   1.326       .  A
N493        N511   1.330       .  A
N493        N498   1.318       .  A
C494        C522   1.445       .  S
C494       C4214   1.434       .  S
C494        N498   1.338       .  A
N495        C510   1.341       .  A
N495       Co517   2.073       .  S
C496        C499   1.464       .  S
C496        N524   1.324       .  A
C496        H530   1.081       .  S
C499       C4277   1.443       .  S
C499        N520   1.326       .  A
N500        N506   1.317       .  A
N501        C527   1.328       .  A
N501        N503   1.308       .  A
N501       Co517   2.029       .  S
N502        C516   1.329       .  A
N503        N531   1.344       .  A
N503       Co521   2.165       .  S
H504        C527   1.078       .  S
H505        C522   1.082       .  S
N507       Co521   2.071       .  S
N508        N520   1.307       .  A
N508        N524   1.309       .  A
N508       Co517   2.021       .  S
C509        C523   1.474       .  S
C509       C4247   1.507       .  S
C509        N513   1.354       .  A
C510        C529   1.450       .  S
C510        H514   1.077       .  S
N511        C522   1.331       .  A
N511       Co521   2.078       .  S
C515        C527   1.441       .  S
C515       C4224   1.519       .  S
C515        N531   1.378       .  A
Co517      Cl528   2.381       .  S
N518        C529   1.373       .  A
C519       C4234   1.501       .  S
Co521      Cl528   2.475       .  S
C529       C4984   1.521       .  S
C532        C569   1.499       .  S
C532       C4924   1.513       .  S
C532        N550   1.336       .  A
N533        N550   1.321       .  A
N533        N555   1.311       .  A
N533       Co570   2.030       .  S
C534        C572   1.437       .  S
C534        N559   1.330       .  A
C534        H579   1.081       .  S
H535        C576   1.081       .  S
C536        C540   1.464       .  S
C536        N560   1.342       .  A
C536        H565   1.082       .  S
Co537       N555   2.174       .  S
Co537       N545   2.077       .  S
Co537       N577   2.158       .  S
Co537       N553   2.074       .  S
Co537      Cl581   2.449       .  S
N538        C576   1.329       .  A
N538        N545   1.327       .  A
N538       Co539   2.055       .  S
Co539       N542   2.104       .  S
Co539       N559   2.045       .  S
Co539       N546   2.125       .  S
Co539      Cl581   2.454       .  S
C540       C4194   1.506       .  S
C540        N578   1.360       .  A
N541        N548   1.318       .  A
N541        N571   1.311       .  A
N541       Co574   2.033       .  S
N542        N560   1.314       .  A
N542        N578   1.333       .  A
N543        C572   1.340       .  A
N543        N553   1.316       .  A
H544        C569   1.081       .  S
N545        N566   1.315       .  A
N546        N564   1.317       .  A
N546        N551   1.335       .  A
C547        C575   1.464       .  S
C547       C4237   1.508       .  S
C547        N551   1.362       .  A
N548        C563   1.322       .  A
N548       Co570   2.022       .  S
C549        C552   1.493       .  S
C549        N577   1.365       .  A
C549        H583   1.081       .  S
C552       C4804   1.520       .  S
C552        N573   1.345       .  A
N553        N559   1.327       .  A
N554        C580   1.313       .  A
N554        N556   1.314       .  A
N554       Co570   1.977       .  S
N555        C569   1.367       .  A
N556        N584   1.313       .  A
N556       Co574   2.052       .  S
H557        C580   1.079       .  S
H558        C575   1.082       .  S
N560       Co574   2.090       .  S
N561        N573   1.324       .  A
N561        N577   1.314       .  A
N561       Co570   2.071       .  S
C562        C576   1.441       .  S
C562       C4174   1.432       .  S
C562        N566   1.344       .  A
C563        C582   1.432       .  S
C563        H567   1.079       .  S
N564        C575   1.342       .  A
N564       Co574   2.087       .  S
C568        C580   1.414       .  S
C568       C4284   1.412       .  S
C568        N584   1.349       .  A
Co570      Cl581   2.433       .  S
N571        C582   1.338       .  A
C572       C4184   1.427       .  S
Co574      Cl581   2.438       .  S
C582       C4337   1.404       .  S
C585        C622   1.441       .  S
C585       C4327   1.399       .  S
C585        N603   1.330       .  A
N586        N603   1.306       .  A
N586        N608   1.316       .  A
N586       Co623   2.014       .  S
C587        C625   1.481       .  S
C587        N612   1.355       .  A
C587        H632   1.081       .  S
H588        C629   1.081       .  S
C589        C593   1.449       .  S
C589        N613   1.330       .  A
C589        H618   1.081       .  S
Co590       N608   2.016       .  S
Co590       N598   2.089       .  S
Co590       N630   2.044       .  S
Co590       N606   2.060       .  S
Co590      Cl634   2.460       .  S
N591        C629   1.351       .  A
N591        N598   1.313       .  A
N591       Co592   2.098       .  S
Co592       N595   2.062       .  S
Co592       N612   2.127       .  S
Co592       N599   2.049       .  S
Co592      Cl634   2.430       .  S
C593       C4154   1.431       .  S
C593        N631   1.337       .  A
N594        N601   1.307       .  A
N594        N624   1.346       .  A
N594       Co627   2.176       .  S
N595        N613   1.330       .  A
N595        N631   1.317       .  A
N596        C625   1.348       .  A
N596        N606   1.322       .  A
H597        C622   1.080       .  S
N598        N619   1.326       .  A
N599        N617   1.332       .  A
N599        N604   1.314       .  A
C600        C628   1.447       .  S
C600       C4164   1.423       .  S
C600        N604   1.332       .  A
N601        C616   1.334       .  A
N601       Co623   2.049       .  S
C602        C605   1.460       .  S
C602        N630   1.331       .  A
C602        H636   1.082       .  S
C605       C4377   1.427       .  S
C605        N626   1.321       .  A
N606        N612   1.315       .  A
N607        C633   1.332       .  A
N607        N609   1.309       .  A
N607       Co623   2.029       .  S
N608        C622   1.325       .  A
N609        N637   1.347       .  A
N609       Co627   2.187       .  S
H610        C633   1.081       .  S
H611        C628   1.081       .  S
N613       Co627   2.081       .  S
N614        N626   1.305       .  A
N614        N630   1.313       .  A
N614       Co623   2.007       .  S
C615        C629   1.474       .  S
C615       C4197   1.501       .  S
C615        N619   1.352       .  A
C616        C635   1.459       .  S
C616        H620   1.079       .  S
N617        C628   1.331       .  A
N617       Co627   2.086       .  S
C621        C633   1.440       .  S
C621       C4524   1.520       .  S
C621        N637   1.380       .  A
Co623      Cl634   2.415       .  S
N624        C635   1.381       .  A
C625       C4244   1.502       .  S
Co627      Cl634   2.455       .  S
C635       C4667   1.542       .  S
C638        C675   1.452       .  S
C638       C4124   1.457       .  S
C638        N656   1.342       .  A
N639        N656   1.308       .  A
N639        N661   1.312       .  A
N639       Co676   2.026       .  S
C640        C678   1.478       .  S
C640        N665   1.353       .  A
C640        H685   1.081       .  S
H641        C682   1.081       .  S
C642        C646   1.449       .  S
C642        N666   1.331       .  A
C642        H671   1.081       .  S
Co643       N661   2.042       .  S
Co643       N651   2.066       .  S
Co643       N683   2.039       .  S
Co643       N659   2.081       .  S
Co643      Cl687   2.434       .  S
N644        C682   1.353       .  A
N644        N651   1.312       .  A
N644       Co645   2.110       .  S
Co645       N648   2.040       .  S
Co645       N665   2.119       .  S
Co645       N652   2.051       .  S
Co645      Cl687   2.450       .  S
C646       C4104   1.423       .  S
C646        N684   1.334       .  A
N647        N654   1.315       .  A
N647        N677   1.340       .  A
N647       Co680   2.142       .  S
N648        N666   1.326       .  A
N648        N684   1.313       .  A
N649        C678   1.350       .  A
N649        N659   1.326       .  A
H650        C675   1.076       .  S
N651        N672   1.323       .  A
N652        N670   1.328       .  A
N652        N657   1.316       .  A
C653        C681   1.446       .  S
C653       C4257   1.429       .  S
C653        N657   1.335       .  A
N654        C669   1.347       .  A
N654       Co676   2.102       .  S
C655        C658   1.449       .  S
C655        N683   1.333       .  A
C655        H689   1.081       .  S
C658       C4114   1.428       .  S
C658        N679   1.340       .  A
N659        N665   1.316       .  A
N660        C686   1.343       .  A
N660        N662   1.315       .  A
N660       Co676   2.075       .  S
N661        C675   1.327       .  A
N662        N690   1.343       .  A
N662       Co680   2.168       .  S
H663        C686   1.082       .  S
H664        C681   1.082       .  S
N666       Co680   2.075       .  S
N667        N679   1.307       .  A
N667        N683   1.317       .  A
N667       Co676   2.040       .  S
C668        C682   1.476       .  S
C668       C4137   1.495       .  S
C668        N672   1.347       .  A
C669        C688   1.466       .  S
C669        H673   1.077       .  S
N670        C681   1.328       .  A
N670       Co680   2.068       .  S
C674        C686   1.456       .  S
C674       C4777   1.525       .  S
C674        N690   1.374       .  A
Co676      Cl687   2.437       .  S
N677        C688   1.367       .  A
C678       C4144   1.502       .  S
Co680      Cl687   2.455       .  S
C688       C5097   1.528       .  S
C691        C728   1.487       .  S
C691       C5037   1.535       .  S
C691        N709   1.358       .  A
N692        N709   1.332       .  A
N692        N714   1.315       .  A
N692       Co729   2.107       .  S
C693        C731   1.432       .  S
C693        N718   1.325       .  A
C693        H738   1.081       .  S
H694        C735   1.081       .  S
C695        C699   1.465       .  S
C695        N719   1.343       .  A
C695        H724   1.082       .  S
Co696       N714   2.142       .  S
Co696       N704   2.074       .  S
Co696       N736   2.162       .  S
Co696       N712   2.077       .  S
Co696      Cl740   2.448       .  S
N697        C735   1.325       .  A
N697        N704   1.324       .  A
N697       Co698   2.034       .  S
Co698       N701   2.103       .  S
Co698       N718   2.035       .  S
Co698       N705   2.108       .  S
Co698      Cl740   2.451       .  S
C699       C4134   1.498       .  S
C699        N737   1.357       .  A
N700        N707   1.316       .  A
N700        N730   1.311       .  A
N700       Co733   2.027       .  S
N701        N719   1.316       .  A
N701        N737   1.331       .  A
N702        C731   1.343       .  A
N702        N712   1.316       .  A
H703        C728   1.081       .  S
N704        N725   1.316       .  A
N705        N723   1.312       .  A
N705        N710   1.334       .  A
C706        C734   1.454       .  S
C706       C4094   1.495       .  S
C706        N710   1.361       .  A
N707        C722   1.316       .  A
N707       Co729   2.007       .  S
C708        C711   1.512       .  S
C708        N736   1.365       .  A
C708        H742   1.077       .  S
C711       C4537   1.552       .  S
C711        N732   1.345       .  A
N712        N718   1.327       .  A
N713        C739   1.328       .  A
N713        N715   1.315       .  A
N713       Co729   2.063       .  S
N714        C728   1.359       .  A
N715        N743   1.314       .  A
N715       Co733   2.035       .  S
H716        C739   1.076       .  S
H717        C734   1.081       .  S
N719       Co733   2.090       .  S
N720        N732   1.320       .  A
N720        N736   1.309       .  A
N720       Co729   2.059       .  S
C721        C735   1.437       .  S
C721       C4064   1.428       .  S
C721        N725   1.345       .  A
C722        C741   1.432       .  S
C722        H726   1.081       .  S
N723        C734   1.335       .  A
N723       Co733   2.063       .  S
C727        C739   1.461       .  S
C727       C4074   1.457       .  S
C727        N743   1.343       .  A
Co729      Cl740   2.432       .  S
N730        C741   1.339       .  A
C731       C4054   1.425       .  S
Co733      Cl740   2.437       .  S
C741       C4087   1.413       .  S
C744        C781   1.455       .  S
C744       C4034   1.429       .  S
C744        N762   1.327       .  A
N745        N762   1.304       .  A
N745        N767   1.313       .  A
N745       Co782   2.019       .  S
C746        C784   1.475       .  S
C746        N771   1.352       .  A
C746        H791   1.081       .  S
H747        C788   1.081       .  S
C748        C752   1.447       .  S
C748        N772   1.329       .  A
C748        H777   1.081       .  S
Co749       N767   2.024       .  S
Co749       N757   2.083       .  S
Co749       N789   2.022       .  S
Co749       N765   2.064       .  S
Co749      Cl793   2.467       .  S
N750        C788   1.353       .  A
N750        N757   1.316       .  A
N750       Co751   2.121       .  S
Co751       N754   2.045       .  S
Co751       N771   2.109       .  S
Co751       N758   2.049       .  S
Co751      Cl793   2.433       .  S
C752       C4307   1.423       .  S
C752        N790   1.334       .  A
N753        N760   1.311       .  A
N753        N783   1.345       .  A
N753       Co786   2.169       .  S
N754        N772   1.327       .  A
N754        N790   1.313       .  A
N755        C784   1.346       .  A
N755        N765   1.322       .  A
H756        C781   1.081       .  S
N757        N778   1.326       .  A
N758        N776   1.328       .  A
N758        N763   1.314       .  A
C759        C787   1.450       .  S
C759       C4024   1.438       .  S
C759        N763   1.335       .  A
N760        C775   1.342       .  A
N760       Co782   2.082       .  S
C761        C764   1.445       .  S
C761        N789   1.331       .  A
C761        H795   1.081       .  S
C764       C4044   1.426       .  S
C764        N785   1.343       .  A
N765        N771   1.314       .  A
N766        C792   1.341       .  A
N766        N768   1.313       .  A
N766       Co782   2.077       .  S
N767        C781   1.328       .  A
N768        N796   1.342       .  A
N768       Co786   2.155       .  S
H769        C792   1.082       .  S
H770        C787   1.081       .  S
N772       Co786   2.067       .  S
N773        N785   1.309       .  A
N773        N789   1.316       .  A
N773       Co782   2.059       .  S
C774        C788   1.477       .  S
C774       C4147   1.502       .  S
C774        N778   1.351       .  A
C775        C794   1.463       .  S
C775        H779   1.080       .  S
N776        C787   1.333       .  A
N776       Co786   2.078       .  S
C780        C792   1.464       .  S
C780       C4837   1.531       .  S
C780        N796   1.372       .  A
Co782      Cl793   2.398       .  S
N783        C794   1.378       .  A
C784       C4097   1.492       .  S
Co786      Cl793   2.473       .  S
C794       C4894   1.545       .  S
C797        C834   1.480       .  S
C797       C4844   1.520       .  S
C797        N815   1.353       .  A
N798        N815   1.332       .  A
N798        N820   1.314       .  A
N798       Co835   2.105       .  S
C799        C837   1.433       .  S
C799        N824   1.327       .  A
C799        H844   1.081       .  S
H800        C841   1.081       .  S
C801        C805   1.461       .  S
C801        N825   1.341       .  A
C801        H830   1.081       .  S
Co802       N820   2.133       .  S
Co802       N810   2.065       .  S
Co802       N842   2.150       .  S
Co802       N818   2.075       .  S
Co802      Cl846   2.450       .  S
N803        C841   1.328       .  A
N803        N810   1.324       .  A
N803       Co804   2.044       .  S
Co804       N807   2.099       .  S
Co804       N824   2.039       .  S
Co804       N811   2.109       .  S
Co804      Cl846   2.452       .  S
C805       C4004   1.495       .  S
C805        N843   1.357       .  A
N806        N813   1.315       .  A
N806        N836   1.319       .  A
N806       Co839   2.056       .  S
N807        N825   1.314       .  A
N807        N843   1.332       .  A
N808        C837   1.343       .  A
N808        N818   1.317       .  A
H809        C834   1.081       .  S
N810        N831   1.314       .  A
N811        N829   1.316       .  A
N811        N816   1.332       .  A
C812        C840   1.463       .  S
C812       C4014   1.495       .  S
C812        N816   1.358       .  A
N813        C828   1.318       .  A
N813       Co835   2.028       .  S
C814        C817   1.506       .  S
C814        N842   1.361       .  A
C814        H848   1.077       .  S
C817       C4547   1.547       .  S
C817        N838   1.348       .  A
N818        N824   1.326       .  A
N819        C845   1.318       .  A
N819        N821   1.314       .  A
N819       Co835   2.033       .  S
N820        C834   1.358       .  A
N821        N849   1.320       .  A
N821       Co839   2.056       .  S
H822        C845   1.079       .  S
H823        C840   1.082       .  S
N825       Co839   2.085       .  S
N826        N838   1.321       .  A
N826        N842   1.310       .  A
N826       Co835   2.072       .  S
C827        C841   1.440       .  S
C827       C3994   1.423       .  S
C827        N831   1.342       .  A
C828        C847   1.450       .  S
C828        H832   1.072       .  S
N829        C840   1.341       .  A
N829       Co839   2.085       .  S
C833        C845   1.448       .  S
C833       C4077   1.451       .  S
C833        N849   1.349       .  A
Co835      Cl846   2.436       .  S
N836        C847   1.350       .  A
C837       C4167   1.423       .  S
Co839      Cl846   2.441       .  S
C847       C4047   1.456       .  S
C850        C887   1.429       .  S
C850       C4127   1.417       .  S
C850        N868   1.345       .  A
N851        N868   1.313       .  A
N851        N873   1.317       .  A
N851       Co888   2.065       .  S
C852        C890   1.485       .  S
C852        N877   1.357       .  A
C852        H897   1.081       .  S
H853        C894   1.081       .  S
C854        C858   1.459       .  S
C854        N878   1.328       .  A
C854        H883   1.079       .  S
Co855       N873   2.003       .  S
Co855       N863   2.078       .  S
Co855       N895   2.027       .  S
Co855       N871   2.046       .  S
Co855      Cl899   2.446       .  S
N856        C894   1.351       .  A
N856        N863   1.311       .  A
N856       Co857   2.097       .  S
Co857       N860   2.061       .  S
Co857       N877   2.133       .  S
Co857       N864   2.043       .  S
Co857      Cl899   2.443       .  S
C858       C3974   1.459       .  S
C858        N896   1.340       .  A
N859        N866   1.313       .  A
N859        N889   1.340       .  A
N859       Co892   2.157       .  S
N860        N878   1.328       .  A
N860        N896   1.316       .  A
N861        C890   1.342       .  A
N861        N871   1.319       .  A
H862        C887   1.080       .  S
N863        N884   1.325       .  A
N864        N882   1.331       .  A
N864        N869   1.313       .  A
C865        C893   1.443       .  S
C865       C4207   1.416       .  S
C865        N869   1.330       .  A
N866        C881   1.345       .  A
N866       Co888   2.079       .  S
C867        C870   1.447       .  S
C867        N895   1.325       .  A
C867        H901   1.081       .  S
C870       C4084   1.420       .  S
C870        N891   1.333       .  A
N871        N877   1.312       .  A
N872        C898   1.345       .  A
N872        N874   1.312       .  A
N872       Co888   2.085       .  S
N873        C887   1.324       .  A
N874        N902   1.344       .  A
N874       Co892   2.163       .  S
H875        C898   1.082       .  S
H876        C893   1.081       .  S
N878       Co892   2.082       .  S
N879        N891   1.310       .  A
N879        N895   1.314       .  A
N879       Co888   2.024       .  S
C880        C894   1.473       .  S
C880       C3987   1.495       .  S
C880        N884   1.349       .  A
C881        C900   1.463       .  S
C881        H885   1.082       .  S
N882        C893   1.329       .  A
N882       Co892   2.074       .  S
C886        C898   1.458       .  S
C886       C5044   1.530       .  S
C886        N902   1.375       .  A
Co888      Cl899   2.427       .  S
N889        C900   1.369       .  A
C890       C4017   1.494       .  S
Co892      Cl899   2.453       .  S
C900       C5107   1.524       .  S
C903        C940   1.443       .  S
C903       C4037   1.407       .  S
C903        N921   1.333       .  A
N904        N921   1.308       .  A
N904        N926   1.317       .  A
N904       Co941   2.020       .  S
C905        C943   1.478       .  S
C905        N930   1.352       .  A
C905        H950   1.081       .  S
H906        C947   1.081       .  S
C907        C911   1.454       .  S
C907        N931   1.335       .  A
C907        H936   1.081       .  S
Co908       N926   2.028       .  S
Co908       N916   2.088       .  S
Co908       N948   2.051       .  S
Co908       N924   2.070       .  S
Co908      Cl952   2.457       .  S
N909        C947   1.349       .  A
N909        N916   1.313       .  A
N909       Co910   2.095       .  S
Co910       N913   2.056       .  S
Co910       N930   2.116       .  S
Co910       N917   2.043       .  S
Co910      Cl952   2.436       .  S
C911       C3957   1.440       .  S
C911        N949   1.336       .  A
N912        N919   1.311       .  A
N912        N942   1.341       .  A
N912       Co945   2.150       .  S
N913        N931   1.329       .  A
N913        N949   1.315       .  A
N914        C943   1.349       .  A
N914        N924   1.323       .  A
H915        C940   1.081       .  S
N916        N937   1.327       .  A
N917        N935   1.329       .  A
N917        N922   1.314       .  A
C918        C946   1.442       .  S
C918       C3964   1.418       .  S
C918        N922   1.332       .  A
N919        C934   1.343       .  A
N919       Co941   2.082       .  S
C920        C923   1.467       .  S
C920        N948   1.330       .  A
C920        H954   1.076       .  S
C923       C4117   1.464       .  S
C923        N944   1.345       .  A
N924        N930   1.314       .  A
N925        C951   1.337       .  A
N925        N927   1.313       .  A
N925       Co941   2.062       .  S
N926        C940   1.326       .  A
N927        N955   1.343       .  A
N927       Co945   2.165       .  S
H928        C951   1.077       .  S
H929        C946   1.081       .  S
N931       Co945   2.094       .  S
N932        N944   1.313       .  A
N932        N948   1.314       .  A
N932       Co941   2.050       .  S
C933        C947   1.470       .  S
C933       C4007   1.495       .  S
C933        N937   1.352       .  A
C934        C953   1.465       .  S
C934        H938   1.081       .  S
N935        C946   1.329       .  A
N935       Co945   2.071       .  S
C939        C951   1.451       .  S
C939       C4787   1.520       .  S
C939        N955   1.373       .  A
Co941      Cl952   2.425       .  S
N942        C953   1.373       .  A
C943       C3984   1.499       .  S
Co945      Cl952   2.462       .  S
C953       C4904   1.536       .  S
C956        C993   1.490       .  S
C956       C4757   1.532       .  S
C956        N974   1.353       .  A
N957        N974   1.329       .  A
N957        N979   1.314       .  A
N957       Co994   2.092       .  S
C958        C996   1.436       .  S
C958        N983   1.329       .  A
C958       H1003   1.081       .  S
H959       C1000   1.081       .  S
C960        C964   1.460       .  S
C960        N984   1.341       .  A
C960        H989   1.082       .  S
Co961       N979   2.151       .  S
Co961       N969   2.070       .  S
Co961      N1001   2.159       .  S
Co961       N977   2.078       .  S
Co961     Cl1005   2.442       .  S
N962       C1000   1.331       .  A
N962        N969   1.325       .  A
N962       Co963   2.051       .  S
Co963       N966   2.112       .  S
Co963       N983   2.047       .  S
Co963       N970   2.111       .  S
Co963     Cl1005   2.459       .  S
C964       C3934   1.496       .  S
C964       N1002   1.359       .  A
N965        N972   1.316       .  A
N965        N995   1.313       .  A
N965       Co998   2.029       .  S
N966        N984   1.316       .  A
N966       N1002   1.333       .  A
N967        C996   1.342       .  A
N967        N977   1.317       .  A
H968        C993   1.081       .  S
N969        N990   1.315       .  A
N970        N988   1.314       .  A
N970        N975   1.334       .  A
C971        C999   1.455       .  S
C971       C3944   1.495       .  S
C971        N975   1.361       .  A
N972        C987   1.318       .  A
N972       Co994   2.016       .  S
C973        C976   1.490       .  S
C973       N1001   1.362       .  A
C973       H1007   1.081       .  S
C976       C3924   1.516       .  S
C976        N997   1.345       .  A
N977        N983   1.327       .  A
N978       C1004   1.326       .  A
N978        N980   1.315       .  A
N978       Co994   2.054       .  S
N979        C993   1.362       .  A
N980       N1008   1.314       .  A
N980       Co998   2.037       .  S
H981       C1004   1.077       .  S
H982        C999   1.081       .  S
N984       Co998   2.084       .  S
N985        N997   1.327       .  A
N985       N1001   1.315       .  A
N985       Co994   2.069       .  S
C986       C1000   1.441       .  S
C986       C3884   1.428       .  S
C986        N990   1.342       .  A
C987       C1006   1.433       .  S
C987        H991   1.080       .  S
N988        C999   1.336       .  A
N988       Co998   2.068       .  S
C992       C1004   1.459       .  S
C992       C3914   1.456       .  S
C992       N1008   1.344       .  A
Co994     Cl1005   2.439       .  S
N995       C1006   1.339       .  A
C996       C3894   1.427       .  S
Co998     Cl1005   2.437       .  S
C1006      C3904   1.417       .  S
C1009      C1046   1.486       .  S
C1009      C4597   1.516       .  S
C1009      N1027   1.349       .  A
N1010      N1027   1.328       .  A
N1010      N1032   1.315       .  A
N1010     Co1047   2.071       .  S
C1011      C1049   1.434       .  S
C1011      N1036   1.328       .  A
C1011      H1056   1.081       .  S
H1012      C1053   1.081       .  S
C1013      C1017   1.455       .  S
C1013      N1037   1.336       .  A
C1013      H1042   1.082       .  S
Co1014     N1032   2.152       .  S
Co1014     N1022   2.067       .  S
Co1014     N1054   2.145       .  S
Co1014     N1030   2.082       .  S
Co1014    Cl1058   2.441       .  S
N1015      C1053   1.326       .  A
N1015      N1022   1.325       .  A
N1015     Co1016   2.031       .  S
Co1016     N1019   2.110       .  S
Co1016     N1036   2.039       .  S
Co1016     N1023   2.094       .  S
Co1016    Cl1058   2.455       .  S
C1017      C3947   1.495       .  S
C1017      N1055   1.361       .  A
N1018      N1025   1.316       .  A
N1018      N1048   1.316       .  A
N1018     Co1051   2.034       .  S
N1019      N1037   1.313       .  A
N1019      N1055   1.334       .  A
N1020      C1049   1.345       .  A
N1020      N1030   1.318       .  A
H1021      C1046   1.081       .  S
N1022      N1043   1.313       .  A
N1023      N1041   1.315       .  A
N1023      N1028   1.330       .  A
C1024      C1052   1.462       .  S
C1024      C3874   1.490       .  S
C1024      N1028   1.355       .  A
N1025      C1040   1.323       .  A
N1025     Co1047   2.052       .  S
C1026      C1029   1.492       .  S
C1026      N1054   1.361       .  A
C1026      H1060   1.081       .  S
C1029      C4497   1.535       .  S
C1029      N1050   1.354       .  A
N1030      N1036   1.325       .  A
N1031      C1057   1.319       .  A
N1031      N1033   1.317       .  A
N1031     Co1047   2.013       .  S
N1032      C1046   1.360       .  A
N1033      N1061   1.312       .  A
N1033     Co1051   2.032       .  S
H1034      C1057   1.080       .  S
H1035      C1052   1.082       .  S
N1037     Co1051   2.063       .  S
N1038      N1050   1.330       .  A
N1038      N1054   1.314       .  A
N1038     Co1047   2.100       .  S
C1039      C1053   1.434       .  S
C1039      C3844   1.417       .  S
C1039      N1043   1.342       .  A
C1040      C1059   1.456       .  S
C1040      H1044   1.081       .  S
N1041      C1052   1.341       .  A
N1041     Co1051   2.086       .  S
C1045      C1057   1.431       .  S
C1045      C3854   1.407       .  S
C1045      N1061   1.339       .  A
Co1047    Cl1058   2.436       .  S
N1048      C1059   1.340       .  A
C1049      C4357   1.429       .  S
Co1051    Cl1058   2.432       .  S
C1059      C3864   1.444       .  S
C1062      C1099   1.487       .  S
C1062      C4674   1.513       .  S
C1062      N1080   1.346       .  A
N1063      N1080   1.326       .  A
N1063      N1085   1.312       .  A
N1063     Co1100   2.068       .  S
C1064      C1102   1.433       .  S
C1064      N1089   1.327       .  A
C1064      H1109   1.081       .  S
H1065      C1106   1.081       .  S
C1066      C1070   1.458       .  S
C1066      N1090   1.337       .  A
C1066      H1095   1.082       .  S
Co1067     N1085   2.145       .  S
Co1067     N1075   2.077       .  S
Co1067     N1107   2.162       .  S
Co1067     N1083   2.081       .  S
Co1067    Cl1111   2.438       .  S
N1068      C1106   1.328       .  A
N1068      N1075   1.328       .  A
N1068     Co1069   2.044       .  S
Co1069     N1072   2.102       .  S
Co1069     N1089   2.042       .  S
Co1069     N1076   2.109       .  S
Co1069    Cl1111   2.449       .  S
C1070      C3877   1.490       .  S
C1070      N1108   1.358       .  A
N1071      N1078   1.314       .  A
N1071      N1101   1.309       .  A
N1071     Co1104   2.032       .  S
N1072      N1090   1.313       .  A
N1072      N1108   1.332       .  A
N1073      C1102   1.342       .  A
N1073      N1083   1.315       .  A
H1074      C1099   1.081       .  S
N1075      N1096   1.315       .  A
N1076      N1094   1.312       .  A
N1076      N1081   1.334       .  A
C1077      C1105   1.458       .  S
C1077      C3937   1.497       .  S
C1077      N1081   1.361       .  A
N1078      C1093   1.324       .  A
N1078     Co1100   2.029       .  S
C1079      C1082   1.502       .  S
C1079      N1107   1.362       .  A
C1079      H1113   1.080       .  S
C1082      C4414   1.542       .  S
C1082      N1103   1.350       .  A
N1083      N1089   1.329       .  A
N1084      C1110   1.325       .  A
N1084      N1086   1.318       .  A
N1084     Co1100   2.042       .  S
N1085      C1099   1.361       .  A
N1086      N1114   1.311       .  A
N1086     Co1104   2.013       .  S
H1087      C1110   1.080       .  S
H1088      C1105   1.082       .  S
N1090     Co1104   2.068       .  S
N1091      N1103   1.327       .  A
N1091      N1107   1.311       .  A
N1091     Co1100   2.070       .  S
C1092      C1106   1.435       .  S
C1092      C4317   1.421       .  S
C1092      N1096   1.342       .  A
C1093      C1112   1.434       .  S
C1093      H1097   1.078       .  S
N1094      C1105   1.340       .  A
N1094     Co1104   2.076       .  S
C1098      C1110   1.440       .  S
C1098      C3834   1.408       .  S
C1098      N1114   1.335       .  A
Co1100    Cl1111   2.435       .  S
N1101      C1112   1.343       .  A
C1102      C3814   1.421       .  S
Co1104    Cl1111   2.438       .  S
C1112      C3824   1.435       .  S
C1115      C1152   1.489       .  S
C1115      C4604   1.522       .  S
C1115      N1133   1.348       .  A
N1116      N1133   1.329       .  A
N1116      N1138   1.317       .  A
N1116     Co1153   2.083       .  S
C1117      C1155   1.439       .  S
C1117      N1142   1.330       .  A
C1117      H1162   1.081       .  S
H1118      C1159   1.081       .  S
C1119      C1123   1.455       .  S
C1119      N1143   1.337       .  A
C1119      H1148   1.081       .  S
Co1120     N1138   2.160       .  S
Co1120     N1128   2.085       .  S
Co1120     N1160   2.152       .  S
Co1120     N1136   2.091       .  S
Co1120    Cl1164   2.445       .  S
N1121      C1159   1.329       .  A
N1121      N1128   1.326       .  A
N1121     Co1122   2.049       .  S
Co1122     N1125   2.104       .  S
Co1122     N1142   2.049       .  S
Co1122     N1129   2.115       .  S
Co1122    Cl1164   2.459       .  S
C1123      C3794   1.485       .  S
C1123      N1161   1.358       .  A
N1124      N1131   1.314       .  A
N1124      N1154   1.317       .  A
N1124     Co1157   2.046       .  S
N1125      N1143   1.314       .  A
N1125      N1161   1.331       .  A
N1126      C1155   1.346       .  A
N1126      N1136   1.319       .  A
H1127      C1152   1.081       .  S
N1128      N1149   1.319       .  A
N1129      N1147   1.315       .  A
N1129      N1134   1.334       .  A
C1130      C1158   1.457       .  S
C1130      C3804   1.499       .  S
C1130      N1134   1.361       .  A
N1131      C1146   1.324       .  A
N1131     Co1153   2.039       .  S
C1132      C1135   1.486       .  S
C1132      N1160   1.360       .  A
C1132      H1166   1.081       .  S
C1135      C3784   1.514       .  S
C1135      N1156   1.347       .  A
N1136      N1142   1.327       .  A
N1137      C1163   1.320       .  A
N1137      N1139   1.316       .  A
N1137     Co1153   2.038       .  S
N1138      C1152   1.362       .  A
N1139      N1167   1.318       .  A
N1139     Co1157   2.038       .  S
H1140      C1163   1.081       .  S
H1141      C1158   1.082       .  S
N1143     Co1157   2.066       .  S
N1144      N1156   1.327       .  A
N1144      N1160   1.317       .  A
N1144     Co1153   2.077       .  S
C1145      C1159   1.437       .  S
C1145      C3774   1.436       .  S
C1145      N1149   1.345       .  A
C1146      C1165   1.456       .  S
C1146      H1150   1.078       .  S
N1147      C1158   1.339       .  A
N1147     Co1157   2.076       .  S
C1151      C1163   1.447       .  S
C1151      C3917   1.435       .  S
C1151      N1167   1.342       .  A
Co1153    Cl1164   2.447       .  S
N1154      C1165   1.346       .  A
C1155      C4217   1.439       .  S
Co1157    Cl1164   2.434       .  S
C1165      C3867   1.456       .  S
C1168      C1205   1.487       .  S
C1168      C4687   1.518       .  S
C1168      N1186   1.349       .  A
N1169      N1186   1.328       .  A
N1169      N1191   1.314       .  A
N1169     Co1206   2.068       .  S
C1170      C1208   1.437       .  S
C1170      N1195   1.326       .  A
C1170      H1215   1.081       .  S
H1171      C1212   1.081       .  S
C1172      C1176   1.457       .  S
C1172      N1196   1.340       .  A
C1172      H1201   1.082       .  S
Co1173     N1191   2.155       .  S
Co1173     N1181   2.078       .  S
Co1173     N1213   2.168       .  S
Co1173     N1189   2.081       .  S
Co1173    Cl1217   2.445       .  S
N1174      C1212   1.327       .  A
N1174      N1181   1.327       .  A
N1174     Co1175   2.043       .  S
Co1175     N1178   2.117       .  S
Co1175     N1195   2.048       .  S
Co1175     N1182   2.110       .  S
Co1175    Cl1217   2.453       .  S
C1176      C3764   1.503       .  S
C1176      N1214   1.362       .  A
N1177      N1184   1.316       .  A
N1177      N1207   1.311       .  A
N1177     Co1210   2.008       .  S
N1178      N1196   1.312       .  A
N1178      N1214   1.336       .  A
N1179      C1208   1.346       .  A
N1179      N1189   1.320       .  A
H1180      C1205   1.081       .  S
N1181      N1202   1.316       .  A
N1182      N1200   1.315       .  A
N1182      N1187   1.331       .  A
C1183      C1211   1.457       .  S
C1183      C3797   1.486       .  S
C1183      N1187   1.360       .  A
N1184      C1199   1.324       .  A
N1184     Co1206   2.042       .  S
C1185      C1188   1.495       .  S
C1185      N1213   1.365       .  A
C1185      H1219   1.081       .  S
C1188      C4507   1.520       .  S
C1188      N1209   1.341       .  A
N1189      N1195   1.326       .  A
N1190      C1216   1.323       .  A
N1190      N1192   1.314       .  A
N1190     Co1206   2.025       .  S
N1191      C1205   1.360       .  A
N1192      N1220   1.311       .  A
N1192     Co1210   2.029       .  S
H1193      C1216   1.077       .  S
H1194      C1211   1.082       .  S
N1196     Co1210   2.074       .  S
N1197      N1209   1.325       .  A
N1197      N1213   1.316       .  A
N1197     Co1206   2.068       .  S
C1198      C1212   1.437       .  S
C1198      C3747   1.423       .  S
C1198      N1202   1.344       .  A
C1199      C1218   1.446       .  S
C1199      H1203   1.080       .  S
N1200      C1211   1.336       .  A
N1200     Co1210   2.065       .  S
C1204      C1216   1.429       .  S
C1204      C3857   1.426       .  S
C1204      N1220   1.342       .  A
Co1206    Cl1217   2.434       .  S
N1207      C1218   1.334       .  A
C1208      C3754   1.442       .  S
Co1210    Cl1217   2.432       .  S
C1218      C3827   1.411       .  S
C1221      C1258   1.496       .  S
C1221      C4767   1.526       .  S
C1221      N1239   1.345       .  A
N1222      N1239   1.326       .  A
N1222      N1244   1.313       .  A
N1222     Co1259   2.061       .  S
C1223      C1261   1.433       .  S
C1223      N1248   1.327       .  A
C1223      H1268   1.081       .  S
H1224      C1265   1.081       .  S
C1225      C1229   1.461       .  S
C1225      N1249   1.341       .  A
C1225      H1254   1.082       .  S
Co1226     N1244   2.169       .  S
Co1226     N1234   2.083       .  S
Co1226     N1266   2.168       .  S
Co1226     N1242   2.077       .  S
Co1226    Cl1270   2.450       .  S
N1227      C1265   1.327       .  A
N1227      N1234   1.328       .  A
N1227     Co1228   2.049       .  S
Co1228     N1231   2.108       .  S
Co1228     N1248   2.039       .  S
Co1228     N1235   2.116       .  S
Co1228    Cl1270   2.456       .  S
C1229      C3807   1.504       .  S
C1229      N1267   1.361       .  A
N1230      N1237   1.318       .  A
N1230      N1260   1.309       .  A
N1230     Co1263   2.028       .  S
N1231      N1249   1.313       .  A
N1231      N1267   1.335       .  A
N1232      C1261   1.343       .  A
N1232      N1242   1.316       .  A
H1233      C1258   1.081       .  S
N1234      N1255   1.318       .  A
N1235      N1253   1.317       .  A
N1235      N1240   1.333       .  A
C1236      C1264   1.467       .  S
C1236      C3767   1.507       .  S
C1236      N1240   1.359       .  A
N1237      C1252   1.326       .  A
N1237     Co1259   2.035       .  S
C1238      C1241   1.496       .  S
C1238      N1266   1.366       .  A
C1238      H1272   1.081       .  S
C1241      C4427   1.532       .  S
C1241      N1262   1.349       .  A
N1242      N1248   1.326       .  A
N1243      C1269   1.318       .  A
N1243      N1245   1.314       .  A
N1243     Co1259   2.012       .  S
N1244      C1258   1.367       .  A
N1245      N1273   1.311       .  A
N1245     Co1263   2.040       .  S
H1246      C1269   1.076       .  S
H1247      C1264   1.082       .  S
N1249     Co1263   2.081       .  S
N1250      N1262   1.328       .  A
N1250      N1266   1.315       .  A
N1250     Co1259   2.078       .  S
C1251      C1265   1.437       .  S
C1251      C4187   1.430       .  S
C1251      N1255   1.344       .  A
C1252      C1271   1.441       .  S
C1252      H1256   1.080       .  S
N1253      C1264   1.344       .  A
N1253     Co1263   2.097       .  S
C1257      C1269   1.432       .  S
C1257      C3837   1.437       .  S
C1257      N1273   1.345       .  A
Co1259    Cl1270   2.434       .  S
N1260      C1271   1.338       .  A
C1261      C3734   1.423       .  S
Co1263    Cl1270   2.437       .  S
C1271      C3907   1.414       .  S
C1274      C1311   1.490       .  S
C1274      C5074   1.531       .  S
C1274      N1292   1.355       .  A
N1275      N1292   1.326       .  A
N1275      N1297   1.315       .  A
N1275     Co1312   2.084       .  S
C1276      C1314   1.440       .  S
C1276      N1301   1.330       .  A
C1276      H1321   1.081       .  S
H1277      C1318   1.081       .  S
C1278      C1282   1.449       .  S
C1278      N1302   1.334       .  A
C1278      H1307   1.082       .  S
Co1279     N1297   2.147       .  S
Co1279     N1287   2.078       .  S
Co1279     N1319   2.166       .  S
Co1279     N1295   2.073       .  S
Co1279    Cl1323   2.447       .  S
N1280      C1318   1.329       .  A
N1280      N1287   1.327       .  A
N1280     Co1281   2.046       .  S
Co1281     N1284   2.130       .  S
Co1281     N1301   2.057       .  S
Co1281     N1288   2.109       .  S
Co1281    Cl1323   2.461       .  S
C1282      C3717   1.496       .  S
C1282      N1320   1.366       .  A
N1283      N1290   1.316       .  A
N1283      N1313   1.317       .  A
N1283     Co1316   2.019       .  S
N1284      N1302   1.314       .  A
N1284      N1320   1.336       .  A
N1285      C1314   1.343       .  A
N1285      N1295   1.316       .  A
H1286      C1311   1.081       .  S
N1287      N1308   1.316       .  A
N1288      N1306   1.314       .  A
N1288      N1293   1.333       .  A
C1289      C1317   1.459       .  S
C1289      C3724   1.494       .  S
C1289      N1293   1.360       .  A
N1290      C1305   1.323       .  A
N1290     Co1312   2.062       .  S
C1291      C1294   1.512       .  S
C1291      N1319   1.366       .  A
C1291      H1325   1.077       .  S
C1294      C4737   1.566       .  S
C1294      N1315   1.353       .  A
N1295      N1301   1.327       .  A
N1296      C1322   1.319       .  A
N1296      N1298   1.316       .  A
N1296     Co1312   2.033       .  S
N1297      C1311   1.360       .  A
N1298      N1326   1.315       .  A
N1298     Co1316   2.016       .  S
H1299      C1322   1.063       .  S
H1300      C1317   1.082       .  S
N1302     Co1316   2.052       .  S
N1303      N1315   1.327       .  A
N1303      N1319   1.310       .  A
N1303     Co1312   2.090       .  S
C1304      C1318   1.438       .  S
C1304      C3684   1.429       .  S
C1304      N1308   1.342       .  A
C1305      C1324   1.457       .  S
C1305      H1309   1.079       .  S
N1306      C1317   1.339       .  A
N1306     Co1316   2.076       .  S
C1310      C1322   1.435       .  S
C1310      C3704   1.413       .  S
C1310      N1326   1.337       .  A
Co1312    Cl1323   2.433       .  S
N1313      C1324   1.338       .  A
C1314      C3887   1.429       .  S
Co1316    Cl1323   2.441       .  S
C1324      C3697   1.436       .  S
C1327      C1364   1.440       .  S
C1327      C3664   1.407       .  S
C1327      N1345   1.335       .  A
N1328      N1345   1.305       .  A
N1328      N1350   1.314       .  A
N1328     Co1365   2.027       .  S
C1329      C1367   1.476       .  S
C1329      N1354   1.353       .  A
C1329      H1374   1.081       .  S
H1330      C1371   1.081       .  S
C1331      C1335   1.449       .  S
C1331      N1355   1.332       .  A
C1331      H1360   1.081       .  S
Co1332     N1350   2.005       .  S
Co1332     N1340   2.074       .  S
Co1332     N1372   2.031       .  S
Co1332     N1348   2.064       .  S
Co1332    Cl1376   2.464       .  S
N1333      C1371   1.351       .  A
N1333      N1340   1.314       .  A
N1333     Co1334   2.106       .  S
Co1334     N1337   2.052       .  S
Co1334     N1354   2.119       .  S
Co1334     N1341   2.040       .  S
Co1334    Cl1376   2.429       .  S
C1335      C4027   1.439       .  S
C1335      N1373   1.336       .  A
N1336      N1343   1.313       .  A
N1336      N1366   1.342       .  A
N1336     Co1369   2.167       .  S
N1337      N1355   1.328       .  A
N1337      N1373   1.315       .  A
N1338      C1367   1.348       .  A
N1338      N1348   1.322       .  A
H1339      C1364   1.081       .  S
N1340      N1361   1.323       .  A
N1341      N1359   1.328       .  A
N1341      N1346   1.312       .  A
C1342      C1370   1.449       .  S
C1342      C3817   1.424       .  S
C1342      N1346   1.332       .  A
N1343      C1358   1.342       .  A
N1343     Co1365   2.067       .  S
C1344      C1347   1.461       .  S
C1344      N1372   1.329       .  A
C1344      H1378   1.081       .  S
C1347      C3654   1.436       .  S
C1347      N1368   1.326       .  A
N1348      N1354   1.315       .  A
N1349      C1375   1.339       .  A
N1349      N1351   1.312       .  A
N1349     Co1365   2.058       .  S
N1350      C1364   1.326       .  A
N1351      N1379   1.344       .  A
N1351     Co1369   2.170       .  S
H1352      C1375   1.080       .  S
H1353      C1370   1.081       .  S
N1355     Co1369   2.077       .  S
N1356      N1368   1.305       .  A
N1356      N1372   1.312       .  A
N1356     Co1365   2.022       .  S
C1357      C1371   1.474       .  S
C1357      C3677   1.494       .  S
C1357      N1361   1.348       .  A
C1358      C1377   1.456       .  S
C1358      H1362   1.081       .  S
N1359      C1370   1.333       .  A
N1359     Co1369   2.076       .  S
C1363      C1375   1.445       .  S
C1363      C4437   1.518       .  S
C1363      N1379   1.375       .  A
Co1365    Cl1376   2.395       .  S
N1366      C1377   1.373       .  A
C1367      C3727   1.493       .  S
Co1369    Cl1376   2.468       .  S
C1377      C4817   1.523       .  S
C1380      C1417   1.465       .  S
C1380      C3644   1.445       .  S
C1380      N1398   1.329       .  A
N1381      N1398   1.305       .  A
N1381      N1403   1.314       .  A
N1381     Co1418   2.017       .  S
C1382      C1420   1.472       .  S
C1382      N1407   1.349       .  A
C1382      H1427   1.081       .  S
H1383      C1424   1.082       .  S
C1384      C1388   1.456       .  S
C1384      N1408   1.334       .  A
C1384      H1413   1.081       .  S
Co1385     N1403   2.043       .  S
Co1385     N1393   2.101       .  S
Co1385     N1425   2.054       .  S
Co1385     N1401   2.078       .  S
Co1385    Cl1429   2.466       .  S
N1386      C1424   1.348       .  A
N1386      N1393   1.316       .  A
N1386     Co1387   2.098       .  S
Co1387     N1390   2.038       .  S
Co1387     N1407   2.100       .  S
Co1387     N1394   2.042       .  S
Co1387    Cl1429   2.429       .  S
C1388      C3624   1.441       .  S
C1388      N1426   1.332       .  A
N1389      N1396   1.312       .  A
N1389      N1419   1.345       .  A
N1389     Co1422   2.160       .  S
N1390      N1408   1.326       .  A
N1390      N1426   1.313       .  A
N1391      C1420   1.351       .  A
N1391      N1401   1.324       .  A
H1392      C1417   1.080       .  S
N1393      N1414   1.329       .  A
N1394      N1412   1.327       .  A
N1394      N1399   1.314       .  A
C1395      C1423   1.450       .  S
C1395      C4057   1.431       .  S
C1395      N1399   1.334       .  A
N1396      C1411   1.340       .  A
N1396     Co1418   2.081       .  S
C1397      C1400   1.460       .  S
C1397      N1425   1.336       .  A
C1397      H1431   1.082       .  S
C1400      C3634   1.439       .  S
C1400      N1421   1.337       .  A
N1401      N1407   1.315       .  A
N1402      C1428   1.339       .  A
N1402      N1404   1.314       .  A
N1402     Co1418   2.053       .  S
N1403      C1417   1.328       .  A
N1404      N1432   1.343       .  A
N1404     Co1422   2.172       .  S
H1405      C1428   1.081       .  S
H1406      C1423   1.081       .  S
N1408     Co1422   2.082       .  S
N1409      N1421   1.309       .  A
N1409      N1425   1.317       .  A
N1409     Co1418   2.044       .  S
C1410      C1424   1.467       .  S
C1410      C3714   1.499       .  S
C1410      N1414   1.356       .  A
C1411      C1430   1.458       .  S
C1411      H1415   1.078       .  S
N1412      C1423   1.331       .  A
N1412     Co1422   2.075       .  S
C1416      C1428   1.448       .  S
C1416      C4554   1.516       .  S
C1416      N1432   1.374       .  A
Co1418    Cl1429   2.406       .  S
N1419      C1430   1.375       .  A
C1420      C3674   1.495       .  S
Co1422    Cl1429   2.471       .  S
C1430      C4634   1.535       .  S
C1433      C1470   1.491       .  S
C1433      C5084   1.530       .  S
C1433      N1451   1.349       .  A
N1434      N1451   1.329       .  A
N1434      N1456   1.317       .  A
N1434     Co1471   2.084       .  S
C1435      C1473   1.437       .  S
C1435      N1460   1.328       .  A
C1435      H1480   1.081       .  S
H1436      C1477   1.079       .  S
C1437      C1441   1.452       .  S
C1437      N1461   1.335       .  A
C1437      H1466   1.081       .  S
Co1438     N1456   2.165       .  S
Co1438     N1446   2.078       .  S
Co1438     N1478   2.147       .  S
Co1438     N1454   2.083       .  S
Co1438    Cl1482   2.452       .  S
N1439      C1477   1.325       .  A
N1439      N1446   1.324       .  A
N1439     Co1440   2.050       .  S
Co1440     N1443   2.121       .  S
Co1440     N1460   2.053       .  S
Co1440     N1447   2.113       .  S
Co1440    Cl1482   2.454       .  S
C1441      C3614   1.495       .  S
C1441      N1479   1.363       .  A
N1442      N1449   1.312       .  A
N1442      N1472   1.316       .  A
N1442     Co1475   2.029       .  S
N1443      N1461   1.314       .  A
N1443      N1479   1.335       .  A
N1444      C1473   1.344       .  A
N1444      N1454   1.317       .  A
H1445      C1470   1.077       .  S
N1446      N1467   1.316       .  A
N1447      N1465   1.313       .  A
N1447      N1452   1.334       .  A
C1448      C1476   1.454       .  S
C1448      C3604   1.491       .  S
C1448      N1452   1.361       .  A
N1449      C1464   1.319       .  A
N1449     Co1471   2.041       .  S
C1450      C1453   1.497       .  S
C1450      N1478   1.358       .  A
C1450      H1484   1.079       .  S
C1453      C4644   1.543       .  S
C1453      N1474   1.354       .  A
N1454      N1460   1.328       .  A
N1455      C1481   1.322       .  A
N1455      N1457   1.315       .  A
N1455     Co1471   2.030       .  S
N1456      C1470   1.361       .  A
N1457      N1485   1.314       .  A
N1457     Co1475   2.021       .  S
H1458      C1481   1.080       .  S
H1459      C1476   1.082       .  S
N1461     Co1475   2.059       .  S
N1462      N1474   1.328       .  A
N1462      N1478   1.312       .  A
N1462     Co1471   2.083       .  S
C1463      C1477   1.451       .  S
C1463      C3977   1.460       .  S
C1463      N1467   1.346       .  A
C1464      C1483   1.460       .  S
C1464      H1468   1.075       .  S
N1465      C1476   1.336       .  A
N1465     Co1475   2.063       .  S
C1469      C1481   1.443       .  S
C1469      C3647   1.413       .  S
C1469      N1485   1.336       .  A
Co1471    Cl1482   2.440       .  S
N1472      C1483   1.346       .  A
C1473      C3777   1.432       .  S
Co1475    Cl1482   2.433       .  S
C1483      C3694   1.458       .  S
C1486      C1523   1.467       .  S
C1486      C3667   1.439       .  S
C1486      N1504   1.323       .  A
N1487      N1504   1.303       .  A
N1487      N1509   1.312       .  A
N1487     Co1524   2.009       .  S
C1488      C1526   1.471       .  S
C1488      N1513   1.350       .  A
C1488      H1533   1.081       .  S
H1489      C1530   1.081       .  S
C1490      C1494   1.447       .  S
C1490      N1514   1.329       .  A
C1490      H1519   1.081       .  S
Co1491     N1509   2.042       .  S
Co1491     N1499   2.084       .  S
Co1491     N1531   2.040       .  S
Co1491     N1507   2.080       .  S
Co1491    Cl1535   2.470       .  S
N1492      C1530   1.351       .  A
N1492      N1499   1.316       .  A
N1492     Co1493   2.110       .  S
Co1493     N1496   2.050       .  S
Co1493     N1513   2.098       .  S
Co1493     N1500   2.055       .  S
Co1493    Cl1535   2.427       .  S
C1494      C3587   1.425       .  S
C1494      N1532   1.335       .  A
N1495      N1502   1.311       .  A
N1495      N1525   1.343       .  A
N1495     Co1528   2.145       .  S
N1496      N1514   1.328       .  A
N1496      N1532   1.315       .  A
N1497      C1526   1.350       .  A
N1497      N1507   1.324       .  A
H1498      C1523   1.081       .  S
N1499      N1520   1.326       .  A
N1500      N1518   1.329       .  A
N1500      N1505   1.315       .  A
C1501      C1529   1.454       .  S
C1501      C3757   1.444       .  S
C1501      N1505   1.336       .  A
N1502      C1517   1.343       .  A
N1502     Co1524   2.091       .  S
C1503      C1506   1.454       .  S
C1503      N1531   1.331       .  A
C1503      H1537   1.075       .  S
C1506      C3637   1.460       .  S
C1506      N1527   1.347       .  A
N1507      N1513   1.313       .  A
N1508      C1534   1.334       .  A
N1508      N1510   1.309       .  A
N1508     Co1524   2.048       .  S
N1509      C1523   1.330       .  A
N1510      N1538   1.340       .  A
N1510     Co1528   2.157       .  S
H1511      C1534   1.079       .  S
H1512      C1529   1.082       .  S
N1514     Co1528   2.073       .  S
N1515      N1527   1.315       .  A
N1515      N1531   1.317       .  A
N1515     Co1524   2.066       .  S
C1516      C1530   1.474       .  S
C1516      C3594   1.500       .  S
C1516      N1520   1.352       .  A
C1517      C1536   1.455       .  S
C1517      H1521   1.076       .  S
N1518      C1529   1.331       .  A
N1518     Co1528   2.083       .  S
C1522      C1534   1.458       .  S
C1522      C4567   1.529       .  S
C1522      N1538   1.375       .  A
Co1524    Cl1535   2.409       .  S
N1525      C1536   1.371       .  A
C1526      C3607   1.491       .  S
Co1528    Cl1535   2.469       .  S
C1536      C4827   1.527       .  S
C1539      C1576   1.466       .  S
C1539      C3707   1.437       .  S
C1539      N1557   1.324       .  A
N1540      N1557   1.305       .  A
N1540      N1562   1.315       .  A
N1540     Co1577   2.012       .  S
C1541      C1579   1.476       .  S
C1541      N1566   1.352       .  A
C1541      H1586   1.081       .  S
H1542      C1583   1.081       .  S
C1543      C1547   1.451       .  S
C1543      N1567   1.331       .  A
C1543      H1572   1.081       .  S
Co1544     N1562   2.050       .  S
Co1544     N1552   2.086       .  S
Co1544     N1584   2.024       .  S
Co1544     N1560   2.087       .  S
Co1544    Cl1588   2.466       .  S
N1545      C1583   1.349       .  A
N1545      N1552   1.315       .  A
N1545     Co1546   2.102       .  S
Co1546     N1549   2.043       .  S
Co1546     N1566   2.116       .  S
Co1546     N1553   2.047       .  S
Co1546    Cl1588   2.430       .  S
C1547      C3967   1.423       .  S
C1547      N1585   1.334       .  A
N1548      N1555   1.311       .  A
N1548      N1578   1.343       .  A
N1548     Co1581   2.159       .  S
N1549      N1567   1.327       .  A
N1549      N1585   1.312       .  A
N1550      C1579   1.350       .  A
N1550      N1560   1.326       .  A
H1551      C1576   1.081       .  S
N1552      N1573   1.327       .  A
N1553      N1571   1.327       .  A
N1553      N1558   1.315       .  A
C1554      C1582   1.447       .  S
C1554      C3574   1.430       .  S
C1554      N1558   1.336       .  A
N1555      C1570   1.338       .  A
N1555     Co1577   2.060       .  S
C1556      C1559   1.445       .  S
C1556      N1584   1.328       .  A
C1556      H1590   1.081       .  S
C1559      C3657   1.412       .  S
C1559      N1580   1.333       .  A
N1560      N1566   1.317       .  A
N1561      C1587   1.339       .  A
N1561      N1563   1.314       .  A
N1561     Co1577   2.058       .  S
N1562      C1576   1.330       .  A
N1563      N1591   1.340       .  A
N1563     Co1581   2.157       .  S
H1564      C1587   1.081       .  S
H1565      C1582   1.082       .  S
N1567     Co1581   2.075       .  S
N1568      N1580   1.306       .  A
N1568      N1584   1.315       .  A
N1568     Co1577   2.019       .  S
C1569      C1583   1.469       .  S
C1569      C3617   1.498       .  S
C1569      N1573   1.354       .  A
C1570      C1589   1.448       .  S
C1570      H1574   1.079       .  S
N1571      C1582   1.329       .  A
N1571     Co1581   2.069       .  S
C1575      C1587   1.451       .  S
C1575      C4447   1.510       .  S
C1575      N1591   1.370       .  A
Co1577    Cl1588   2.399       .  S
N1578      C1589   1.375       .  A
C1579      C3597   1.499       .  S
Co1581    Cl1588   2.467       .  S
C1589      C4744   1.521       .  S
C1592      C1629   1.449       .  S
C1592      C3544   1.442       .  S
C1592      N1610   1.339       .  A
N1593      N1610   1.307       .  A
N1593      N1615   1.313       .  A
N1593     Co1630   2.015       .  S
C1594      C1632   1.478       .  S
C1594      N1619   1.353       .  A
C1594      H1639   1.081       .  S
H1595      C1636   1.081       .  S
C1596      C1600   1.448       .  S
C1596      N1620   1.329       .  A
C1596      H1625   1.081       .  S
Co1597     N1615   2.046       .  S
Co1597     N1605   2.068       .  S
Co1597     N1637   2.049       .  S
Co1597     N1613   2.069       .  S
Co1597    Cl1641   2.415       .  S
N1598      C1636   1.355       .  A
N1598      N1605   1.314       .  A
N1598     Co1599   2.125       .  S
Co1599     N1602   2.041       .  S
Co1599     N1619   2.110       .  S
Co1599     N1606   2.053       .  S
Co1599    Cl1641   2.452       .  S
C1600      C3527   1.423       .  S
C1600      N1638   1.333       .  A
N1601      N1608   1.315       .  A
N1601      N1631   1.343       .  A
N1601     Co1634   2.165       .  S
N1602      N1620   1.327       .  A
N1602      N1638   1.313       .  A
N1603      C1632   1.348       .  A
N1603      N1613   1.323       .  A
H1604      C1629   1.080       .  S
N1605      N1626   1.325       .  A
N1606      N1624   1.328       .  A
N1606      N1611   1.316       .  A
C1607      C1635   1.452       .  S
C1607      C3627   1.445       .  S
C1607      N1611   1.336       .  A
N1608      C1623   1.344       .  A
N1608     Co1630   2.080       .  S
C1609      C1612   1.451       .  S
C1609      N1637   1.329       .  A
C1609      H1643   1.079       .  S
C1612      C3534   1.446       .  S
C1612      N1633   1.339       .  A
N1613      N1619   1.313       .  A
N1614      C1640   1.343       .  A
N1614      N1616   1.315       .  A
N1614     Co1630   2.076       .  S
N1615      C1629   1.329       .  A
N1616      N1644   1.342       .  A
N1616     Co1634   2.161       .  S
H1617      C1640   1.080       .  S
H1618      C1635   1.081       .  S
N1620     Co1634   2.069       .  S
N1621      N1633   1.307       .  A
N1621      N1637   1.313       .  A
N1621     Co1630   2.018       .  S
C1622      C1636   1.480       .  S
C1622      C3554   1.498       .  S
C1622      N1626   1.347       .  A
C1623      C1642   1.458       .  S
C1623      H1627   1.080       .  S
N1624      C1635   1.331       .  A
N1624     Co1634   2.080       .  S
C1628      C1640   1.454       .  S
C1628      C4617   1.520       .  S
C1628      N1644   1.372       .  A
Co1630    Cl1641   2.449       .  S
N1631      C1642   1.372       .  A
C1632      C3564   1.498       .  S
Co1634    Cl1641   2.448       .  S
C1642      C5257   1.527       .  S
C1645      C1682   1.492       .  S
C1645      C4877   1.523       .  S
C1645      N1663   1.346       .  A
N1646      N1663   1.325       .  A
N1646      N1668   1.312       .  A
N1646     Co1683   2.070       .  S
C1647      C1685   1.437       .  S
C1647      N1672   1.330       .  A
C1647      H1692   1.082       .  S
H1648      C1689   1.081       .  S
C1649      C1653   1.466       .  S
C1649      N1673   1.345       .  A
C1649      H1678   1.082       .  S
Co1650     N1668   2.154       .  S
Co1650     N1658   2.076       .  S
Co1650     N1690   2.173       .  S
Co1650     N1666   2.070       .  S
Co1650    Cl1694   2.434       .  S
N1651      C1689   1.326       .  A
N1651      N1658   1.326       .  A
N1651     Co1652   2.039       .  S
Co1652     N1655   2.105       .  S
Co1652     N1672   2.043       .  S
Co1652     N1659   2.111       .  S
Co1652    Cl1694   2.461       .  S
C1653      C3557   1.500       .  S
C1653      N1691   1.357       .  A
N1654      N1661   1.315       .  A
N1654      N1684   1.310       .  A
N1654     Co1687   2.043       .  S
N1655      N1673   1.315       .  A
N1655      N1691   1.332       .  A
N1656      C1685   1.341       .  A
N1656      N1666   1.313       .  A
H1657      C1682   1.081       .  S
N1658      N1679   1.316       .  A
N1659      N1677   1.314       .  A
N1659      N1664   1.334       .  A
C1660      C1688   1.461       .  S
C1660      C3514   1.505       .  S
C1660      N1664   1.363       .  A
N1661      C1676   1.324       .  A
N1661     Co1683   2.021       .  S
C1662      C1665   1.494       .  S
C1662      N1690   1.365       .  A
C1662      H1696   1.081       .  S
C1665      C4454   1.525       .  S
C1665      N1686   1.347       .  A
N1666      N1672   1.326       .  A
N1667      C1693   1.326       .  A
N1667      N1669   1.316       .  A
N1667     Co1683   2.032       .  S
N1668      C1682   1.364       .  A
N1669      N1697   1.309       .  A
N1669     Co1687   2.017       .  S
H1670      C1693   1.080       .  S
H1671      C1688   1.081       .  S
N1673     Co1687   2.092       .  S
N1674      N1686   1.328       .  A
N1674      N1690   1.315       .  A
N1674     Co1683   2.066       .  S
C1675      C1689   1.435       .  S
C1675      C3474   1.424       .  S
C1675      N1679   1.344       .  A
C1676      C1695   1.427       .  S
C1676      H1680   1.076       .  S
N1677      C1688   1.338       .  A
N1677     Co1687   2.079       .  S
C1681      C1693   1.442       .  S
C1681      C3494   1.410       .  S
C1681      N1697   1.335       .  A
Co1683    Cl1694   2.444       .  S
N1684      C1695   1.346       .  A
C1685      C3484   1.424       .  S
Co1687    Cl1694   2.425       .  S
C1695      C3504   1.430       .  S
C1698      C1735   1.491       .  S
C1698      C5157   1.531       .  S
C1698      N1716   1.352       .  A
N1699      N1716   1.330       .  A
N1699      N1721   1.316       .  A
N1699     Co1736   2.090       .  S
C1700      C1738   1.441       .  S
C1700      N1725   1.330       .  A
C1700      H1745   1.081       .  S
H1701      C1742   1.082       .  S
C1702      C1706   1.457       .  S
C1702      N1726   1.333       .  A
C1702      H1731   1.082       .  S
Co1703     N1721   2.160       .  S
Co1703     N1711   2.068       .  S
Co1703     N1743   2.148       .  S
Co1703     N1719   2.072       .  S
Co1703    Cl1747   2.427       .  S
N1704      C1742   1.328       .  A
N1704      N1711   1.326       .  A
N1704     Co1705   2.041       .  S
Co1705     N1708   2.121       .  S
Co1705     N1725   2.051       .  S
Co1705     N1712   2.098       .  S
Co1705    Cl1747   2.473       .  S
C1706      C3517   1.498       .  S
C1706      N1744   1.364       .  A
N1707      N1714   1.313       .  A
N1707      N1737   1.315       .  A
N1707     Co1740   2.039       .  S
N1708      N1726   1.313       .  A
N1708      N1744   1.335       .  A
N1709      C1738   1.342       .  A
N1709      N1719   1.315       .  A
H1710      C1735   1.081       .  S
N1711      N1732   1.313       .  A
N1712      N1730   1.314       .  A
N1712      N1717   1.332       .  A
C1713      C1741   1.460       .  S
C1713      C3567   1.497       .  S
C1713      N1717   1.359       .  A
N1714      C1729   1.323       .  A
N1714     Co1736   2.039       .  S
C1715      C1718   1.486       .  S
C1715      N1743   1.360       .  A
C1715      H1749   1.081       .  S
C1718      C5057   1.531       .  S
C1718      N1739   1.356       .  A
N1719      N1725   1.326       .  A
N1720      C1746   1.322       .  A
N1720      N1722   1.317       .  A
N1720     Co1736   2.042       .  S
N1721      C1735   1.363       .  A
N1722      N1750   1.316       .  A
N1722     Co1740   2.029       .  S
H1723      C1746   1.080       .  S
H1724      C1741   1.082       .  S
N1726     Co1740   2.059       .  S
N1727      N1739   1.332       .  A
N1727      N1743   1.314       .  A
N1727     Co1736   2.097       .  S
C1728      C1742   1.438       .  S
C1728      C3444   1.426       .  S
C1728      N1732   1.341       .  A
C1729      C1748   1.455       .  S
C1729      H1733   1.080       .  S
N1730      C1741   1.340       .  A
N1730     Co1740   2.085       .  S
C1734      C1746   1.447       .  S
C1734      C3464   1.425       .  S
C1734      N1750   1.338       .  A
Co1736    Cl1747   2.459       .  S
N1737      C1748   1.343       .  A
C1738      C3687   1.430       .  S
Co1740    Cl1747   2.412       .  S
C1748      C3454   1.449       .  S
C1751      C1788   1.437       .  S
C1751      C3547   1.423       .  S
C1751      N1769   1.342       .  A
N1752      N1769   1.310       .  A
N1752      N1774   1.315       .  A
N1752     Co1789   2.049       .  S
C1753      C1791   1.478       .  S
C1753      N1778   1.354       .  A
C1753      H1798   1.081       .  S
H1754      C1795   1.081       .  S
C1755      C1759   1.452       .  S
C1755      N1779   1.327       .  A
C1755      H1784   1.080       .  S
Co1756     N1774   2.013       .  S
Co1756     N1764   2.066       .  S
Co1756     N1796   2.027       .  S
Co1756     N1772   2.066       .  S
Co1756    Cl1800   2.450       .  S
N1757      C1795   1.355       .  A
N1757      N1764   1.313       .  A
N1757     Co1758   2.117       .  S
Co1758     N1761   2.055       .  S
Co1758     N1778   2.123       .  S
Co1758     N1765   2.052       .  S
Co1758    Cl1800   2.434       .  S
C1759      C3414   1.447       .  S
C1759      N1797   1.338       .  A
N1760      N1767   1.315       .  A
N1760      N1790   1.344       .  A
N1760     Co1793   2.177       .  S
N1761      N1779   1.325       .  A
N1761      N1797   1.312       .  A
N1762      C1791   1.347       .  A
N1762      N1772   1.323       .  A
H1763      C1788   1.080       .  S
N1764      N1785   1.322       .  A
N1765      N1783   1.328       .  A
N1765      N1770   1.314       .  A
C1766      C1794   1.448       .  S
C1766      C3584   1.425       .  S
C1766      N1770   1.334       .  A
N1767      C1782   1.343       .  A
N1767     Co1789   2.072       .  S
C1768      C1771   1.445       .  S
C1768      N1796   1.329       .  A
C1768      H1802   1.081       .  S
C1771      C3507   1.411       .  S
C1771      N1792   1.332       .  A
N1772      N1778   1.315       .  A
N1773      C1799   1.346       .  A
N1773      N1775   1.313       .  A
N1773     Co1789   2.092       .  S
N1774      C1788   1.326       .  A
N1775      N1803   1.341       .  A
N1775     Co1793   2.149       .  S
H1776      C1799   1.081       .  S
H1777      C1794   1.081       .  S
N1779     Co1793   2.057       .  S
N1780      N1792   1.304       .  A
N1780      N1796   1.315       .  A
N1780     Co1789   2.014       .  S
C1781      C1795   1.480       .  S
C1781      C3434   1.498       .  S
C1781      N1785   1.346       .  A
C1782      C1801   1.455       .  S
C1782      H1786   1.081       .  S
N1783      C1794   1.331       .  A
N1783     Co1793   2.073       .  S
C1787      C1799   1.463       .  S
C1787      C4887   1.530       .  S
C1787      N1803   1.371       .  A
Co1789    Cl1800   2.418       .  S
N1790      C1801   1.375       .  A
C1791      C3427   1.495       .  S
Co1793    Cl1800   2.468       .  S
C1801      C5267   1.525       .  S
C1804      C1841   1.464       .  S
C1804      C3467   1.460       .  S
C1804      N1822   1.344       .  A
N1805      N1822   1.313       .  A
N1805      N1827   1.316       .  A
N1805     Co1842   2.043       .  S
C1806      C1844   1.475       .  S
C1806      N1831   1.351       .  A
C1806      H1851   1.081       .  S
H1807      C1848   1.081       .  S
C1808      C1812   1.450       .  S
C1808      N1832   1.331       .  A
C1808      H1837   1.081       .  S
Co1809     N1827   2.058       .  S
Co1809     N1817   2.069       .  S
Co1809     N1849   2.026       .  S
Co1809     N1825   2.083       .  S
Co1809    Cl1853   2.439       .  S
N1810      C1848   1.351       .  A
N1810      N1817   1.313       .  A
N1810     Co1811   2.109       .  S
Co1811     N1814   2.038       .  S
Co1811     N1831   2.100       .  S
Co1811     N1818   2.049       .  S
Co1811    Cl1853   2.446       .  S
C1812      C3387   1.423       .  S
C1812      N1850   1.332       .  A
N1813      N1820   1.313       .  A
N1813      N1843   1.341       .  A
N1813     Co1846   2.147       .  S
N1814      N1832   1.327       .  A
N1814      N1850   1.312       .  A
N1815      C1844   1.350       .  A
N1815      N1825   1.325       .  A
H1816      C1841   1.075       .  S
N1817      N1838   1.324       .  A
N1818      N1836   1.329       .  A
N1818      N1823   1.315       .  A
C1819      C1847   1.447       .  S
C1819      C3394   1.427       .  S
C1819      N1823   1.334       .  A
N1820      C1835   1.344       .  A
N1820     Co1842   2.086       .  S
C1821      C1824   1.437       .  S
C1821      N1849   1.327       .  A
C1821      H1855   1.079       .  S
C1824      C3537   1.426       .  S
C1824      N1845   1.341       .  A
N1825      N1831   1.312       .  A
N1826      C1852   1.346       .  A
N1826      N1828   1.314       .  A
N1826     Co1842   2.089       .  S
N1827      C1841   1.329       .  A
N1828      N1856   1.342       .  A
N1828     Co1846   2.156       .  S
H1829      C1852   1.081       .  S
H1830      C1847   1.081       .  S
N1832     Co1846   2.073       .  S
N1833      N1845   1.309       .  A
N1833      N1849   1.317       .  A
N1833     Co1842   2.041       .  S
C1834      C1848   1.474       .  S
C1834      C3407   1.494       .  S
C1834      N1838   1.349       .  A
C1835      C1854   1.460       .  S
C1835      H1839   1.077       .  S
N1836      C1847   1.331       .  A
N1836     Co1846   2.080       .  S
C1840      C1852   1.462       .  S
C1840      C4627   1.525       .  S
C1840      N1856   1.370       .  A
Co1842    Cl1853   2.446       .  S
N1843      C1854   1.369       .  A
C1844      C3437   1.499       .  S
Co1846    Cl1853   2.447       .  S
C1854      C5067   1.523       .  S
C1857      C1894   1.507       .  S
C1857      C5167   1.553       .  S
C1857      N1875   1.352       .  A
N1858      N1875   1.324       .  A
N1858      N1880   1.307       .  A
N1858     Co1895   2.069       .  S
C1859      C1897   1.437       .  S
C1859      N1884   1.328       .  A
C1859      H1904   1.082       .  S
H1860      C1901   1.081       .  S
C1861      C1865   1.458       .  S
C1861      N1885   1.340       .  A
C1861      H1890   1.081       .  S
Co1862     N1880   2.152       .  S
Co1862     N1870   2.080       .  S
Co1862     N1902   2.157       .  S
Co1862     N1878   2.079       .  S
Co1862    Cl1906   2.437       .  S
N1863      C1901   1.328       .  A
N1863      N1870   1.328       .  A
N1863     Co1864   2.048       .  S
Co1864     N1867   2.103       .  S
Co1864     N1884   2.045       .  S
Co1864     N1871   2.110       .  S
Co1864    Cl1906   2.452       .  S
C1865      C3404   1.497       .  S
C1865      N1903   1.360       .  A
N1866      N1873   1.317       .  A
N1866      N1896   1.314       .  A
N1866     Co1899   2.033       .  S
N1867      N1885   1.310       .  A
N1867      N1903   1.333       .  A
N1868      C1897   1.344       .  A
N1868      N1878   1.315       .  A
H1869      C1894   1.076       .  S
N1870      N1891   1.316       .  A
N1871      N1889   1.315       .  A
N1871      N1876   1.332       .  A
C1872      C1900   1.463       .  S
C1872      C3424   1.499       .  S
C1872      N1876   1.359       .  A
N1873      C1888   1.327       .  A
N1873     Co1895   2.063       .  S
C1874      C1877   1.491       .  S
C1874      N1902   1.363       .  A
C1874      H1908   1.081       .  S
C1877      C4464   1.528       .  S
C1877      N1898   1.351       .  A
N1878      N1884   1.327       .  A
N1879      C1905   1.320       .  A
N1879      N1881   1.316       .  A
N1879     Co1895   2.020       .  S
N1880      C1894   1.361       .  A
N1881      N1909   1.312       .  A
N1881     Co1899   2.036       .  S
H1882      C1905   1.080       .  S
H1883      C1900   1.082       .  S
N1885     Co1899   2.069       .  S
N1886      N1898   1.330       .  A
N1886      N1902   1.314       .  A
N1886     Co1895   2.090       .  S
C1887      C1901   1.437       .  S
C1887      C3374   1.423       .  S
C1887      N1891   1.343       .  A
C1888      C1907   1.457       .  S
C1888      H1892   1.076       .  S
N1889      C1900   1.342       .  A
N1889     Co1899   2.087       .  S
C1893      C1905   1.432       .  S
C1893      C3497   1.424       .  S
C1893      N1909   1.341       .  A
Co1895    Cl1906   2.444       .  S
N1896      C1907   1.340       .  A
C1897      C3577   1.432       .  S
Co1899    Cl1906   2.439       .  S
C1907      C3457   1.449       .  S
C1910      C1947   1.494       .  S
C1910      C5234   1.547       .  S
C1910      N1928   1.359       .  A
N1911      N1928   1.333       .  A
N1911      N1933   1.312       .  A
N1911     Co1948   2.103       .  S
C1912      C1950   1.429       .  S
C1912      N1937   1.324       .  A
C1912      H1957   1.081       .  S
H1913      C1954   1.081       .  S
C1914      C1918   1.468       .  S
C1914      N1938   1.346       .  A
C1914      H1943   1.081       .  S
Co1915     N1933   2.149       .  S
Co1915     N1923   2.088       .  S
Co1915     N1955   2.172       .  S
Co1915     N1931   2.073       .  S
Co1915    Cl1959   2.441       .  S
N1916      C1954   1.330       .  A
N1916      N1923   1.327       .  A
N1916     Co1917   2.050       .  S
Co1917     N1920   2.086       .  S
Co1917     N1937   2.032       .  S
Co1917     N1924   2.111       .  S
Co1917    Cl1959   2.449       .  S
C1918      C3354   1.500       .  S
C1918      N1956   1.354       .  A
N1919      N1926   1.319       .  A
N1919      N1949   1.312       .  A
N1919     Co1952   2.029       .  S
N1920      N1938   1.314       .  A
N1920      N1956   1.330       .  A
N1921      C1950   1.342       .  A
N1921      N1931   1.314       .  A
H1922      C1947   1.080       .  S
N1923      N1944   1.318       .  A
N1924      N1942   1.314       .  A
N1924      N1929   1.333       .  A
C1925      C1953   1.464       .  S
C1925      C3364   1.503       .  S
C1925      N1929   1.360       .  A
N1926      C1941   1.314       .  A
N1926     Co1948   2.010       .  S
C1927      C1930   1.498       .  S
C1927      N1955   1.367       .  A
C1927      H1961   1.081       .  S
C1930      C4577   1.523       .  S
C1930      N1951   1.342       .  A
N1931      N1937   1.328       .  A
N1932      C1958   1.326       .  A
N1932      N1934   1.318       .  A
N1932     Co1948   2.039       .  S
N1933      C1947   1.361       .  A
N1934      N1962   1.312       .  A
N1934     Co1952   2.060       .  S
H1935      C1958   1.079       .  S
H1936      C1953   1.082       .  S
N1938     Co1952   2.101       .  S
N1939      N1951   1.325       .  A
N1939      N1955   1.311       .  A
N1939     Co1948   2.049       .  S
C1940      C1954   1.439       .  S
C1940      C3327   1.434       .  S
C1940      N1944   1.345       .  A
C1941      C1960   1.427       .  S
C1941      H1945   1.078       .  S
N1942      C1953   1.342       .  A
N1942     Co1952   2.081       .  S
C1946      C1958   1.437       .  S
C1946      C3344   1.441       .  S
C1946      N1962   1.347       .  A
Co1948    Cl1959   2.445       .  S
N1949      C1960   1.337       .  A
C1950      C3847   1.416       .  S
Co1952    Cl1959   2.440       .  S
C1960      C3334   1.399       .  S
C1963      C2000   1.444       .  S
C1963      C3297   1.415       .  S
C1963      N1981   1.336       .  A
N1964      N1981   1.304       .  A
N1964      N1986   1.315       .  A
N1964     Co2001   2.019       .  S
C1965      C2003   1.478       .  S
C1965      N1990   1.354       .  A
C1965      H2010   1.081       .  S
H1966      C2007   1.081       .  S
C1967      C1971   1.445       .  S
C1967      N1991   1.328       .  A
C1967      H1996   1.081       .  S
Co1968     N1986   2.027       .  S
Co1968     N1976   2.054       .  S
Co1968     N2008   2.016       .  S
Co1968     N1984   2.061       .  S
Co1968    Cl2012   2.449       .  S
N1969      C2007   1.354       .  A
N1969      N1976   1.314       .  A
N1969     Co1970   2.120       .  S
Co1970     N1973   2.052       .  S
Co1970     N1990   2.111       .  S
Co1970     N1977   2.059       .  S
Co1970    Cl2012   2.440       .  S
C1971      C3447   1.426       .  S
C1971      N2009   1.337       .  A
N1972      N1979   1.312       .  A
N1972      N2002   1.339       .  A
N1972     Co2005   2.135       .  S
N1973      N1991   1.327       .  A
N1973      N2009   1.315       .  A
N1974      C2003   1.344       .  A
N1974      N1984   1.322       .  A
H1975      C2000   1.081       .  S
N1976      N1997   1.320       .  A
N1977      N1995   1.330       .  A
N1977      N1982   1.314       .  A
C1978      C2006   1.448       .  S
C1978      C3897   1.429       .  S
C1978      N1982   1.336       .  A
N1979      C1994   1.345       .  A
N1979     Co2001   2.095       .  S
C1980      C1983   1.436       .  S
C1980      N2008   1.328       .  A
C1980      H2014   1.079       .  S
C1983      C3284   1.430       .  S
C1983      N2004   1.345       .  A
N1984      N1990   1.311       .  A
N1985      C2011   1.340       .  A
N1985      N1987   1.311       .  A
N1985     Co2001   2.058       .  S
N1986      C2000   1.332       .  A
N1987      N2015   1.337       .  A
N1987     Co2005   2.148       .  S
H1988      C2011   1.081       .  S
H1989      C2006   1.081       .  S
N1991     Co2005   2.064       .  S
N1992      N2004   1.311       .  A
N1992      N2008   1.316       .  A
N1992     Co2001   2.059       .  S
C1993      C2007   1.479       .  S
C1993      C3317   1.490       .  S
C1993      N1997   1.344       .  A
C1994      C2013   1.470       .  S
C1994      H1998   1.081       .  S
N1995      C2006   1.332       .  A
N1995     Co2005   2.081       .  S
C1999      C2011   1.457       .  S
C1999      C3304   1.518       .  S
C1999      N2015   1.371       .  A
Co2001    Cl2012   2.424       .  S
N2002      C2013   1.369       .  A
C2003      C3367   1.492       .  S
Co2005    Cl2012   2.449       .  S
C2013      C5134   1.533       .  S
C2016      C2053   1.462       .  S
C2016      C3274   1.437       .  S
C2016      N2034   1.327       .  A
N2017      N2034   1.305       .  A
N2017      N2039   1.313       .  A
N2017     Co2054   2.020       .  S
C2018      C2056   1.470       .  S
C2018      N2043   1.348       .  A
C2018      H2063   1.081       .  S
H2019      C2060   1.081       .  S
C2020      C2024   1.449       .  S
C2020      N2044   1.330       .  A
C2020      H2049   1.081       .  S
Co2021     N2039   2.034       .  S
Co2021     N2029   2.087       .  S
Co2021     N2061   2.036       .  S
Co2021     N2037   2.082       .  S
Co2021    Cl2065   2.464       .  S
N2022      C2060   1.349       .  A
N2022      N2029   1.316       .  A
N2022     Co2023   2.100       .  S
Co2023     N2026   2.048       .  S
Co2023     N2043   2.104       .  S
Co2023     N2030   2.041       .  S
Co2023    Cl2065   2.431       .  S
C2024      C3254   1.429       .  S
C2024      N2062   1.336       .  A
N2025      N2032   1.311       .  A
N2025      N2055   1.341       .  A
N2025     Co2058   2.151       .  S
N2026      N2044   1.326       .  A
N2026      N2062   1.316       .  A
N2027      C2056   1.351       .  A
N2027      N2037   1.325       .  A
H2028      C2053   1.081       .  S
N2029      N2050   1.325       .  A
N2030      N2048   1.326       .  A
N2030      N2035   1.313       .  A
C2031      C2059   1.448       .  S
C2031      C3487   1.423       .  S
C2031      N2035   1.333       .  A
N2032      C2047   1.340       .  A
N2032     Co2054   2.062       .  S
C2033      C2036   1.460       .  S
C2033      N2061   1.328       .  A
C2033      H2067   1.081       .  S
C2036      C3264   1.441       .  S
C2036      N2057   1.331       .  A
N2037      N2043   1.316       .  A
N2038      C2064   1.340       .  A
N2038      N2040   1.313       .  A
N2038     Co2054   2.059       .  S
N2039      C2053   1.327       .  A
N2040      N2068   1.342       .  A
N2040     Co2058   2.164       .  S
H2041      C2064   1.081       .  S
H2042      C2059   1.081       .  S
N2044     Co2058   2.075       .  S
N2045      N2057   1.308       .  A
N2045      N2061   1.314       .  A
N2045     Co2054   2.029       .  S
C2046      C2060   1.470       .  S
C2046      C3357   1.495       .  S
C2046      N2050   1.352       .  A
C2047      C2066   1.450       .  S
C2047      H2051   1.080       .  S
N2048      C2059   1.329       .  A
N2048     Co2058   2.065       .  S
C2052      C2064   1.448       .  S
C2052      C4474   1.514       .  S
C2052      N2068   1.372       .  A
Co2054    Cl2065   2.401       .  S
N2055      C2066   1.370       .  A
C2056      C3314   1.490       .  S
Co2058    Cl2065   2.460       .  S
C2066      C4717   1.514       .  S
C2069      C2106   1.468       .  S
C2069      C3294   1.447       .  S
C2069      N2087   1.330       .  A
N2070      N2087   1.308       .  A
N2070      N2092   1.313       .  A
N2070     Co2107   2.023       .  S
C2071      C2109   1.468       .  S
C2071      N2096   1.347       .  A
C2071      H2116   1.081       .  S
H2072      C2113   1.081       .  S
C2073      C2077   1.450       .  S
C2073      N2097   1.333       .  A
C2073      H2102   1.081       .  S
Co2074     N2092   2.047       .  S
Co2074     N2082   2.084       .  S
Co2074     N2114   2.037       .  S
Co2074     N2090   2.090       .  S
Co2074    Cl2118   2.465       .  S
N2075      C2113   1.351       .  A
N2075      N2082   1.315       .  A
N2075     Co2076   2.110       .  S
Co2076     N2079   2.036       .  S
Co2076     N2096   2.094       .  S
Co2076     N2083   2.041       .  S
Co2076    Cl2118   2.432       .  S
C2077      C3224   1.423       .  S
C2077      N2115   1.332       .  A
N2078      N2085   1.312       .  A
N2078      N2108   1.343       .  A
N2078     Co2111   2.159       .  S
N2079      N2097   1.327       .  A
N2079      N2115   1.313       .  A
N2080      C2109   1.353       .  A
N2080      N2090   1.325       .  A
H2081      C2106   1.081       .  S
N2082      N2103   1.327       .  A
N2083      N2101   1.326       .  A
N2083      N2088   1.314       .  A
C2084      C2112   1.449       .  S
C2084      C3737   1.425       .  S
C2084      N2088   1.334       .  A
N2085      C2100   1.341       .  A
N2085     Co2107   2.066       .  S
C2086      C2089   1.449       .  S
C2086      N2114   1.332       .  A
C2086      H2120   1.081       .  S
C2089      C3267   1.417       .  S
C2089      N2110   1.332       .  A
N2090      N2096   1.316       .  A
N2091      C2117   1.340       .  A
N2091      N2093   1.313       .  A
N2091     Co2107   2.072       .  S
N2092      C2106   1.328       .  A
N2093      N2121   1.345       .  A
N2093     Co2111   2.172       .  S
H2094      C2117   1.081       .  S
H2095      C2112   1.081       .  S
N2097     Co2111   2.080       .  S
N2098      N2110   1.307       .  A
N2098      N2114   1.317       .  A
N2098     Co2107   2.026       .  S
C2099      C2113   1.473       .  S
C2099      C3244   1.501       .  S
C2099      N2103   1.352       .  A
C2100      C2119   1.449       .  S
C2100      H2104   1.079       .  S
N2101      C2112   1.331       .  A
N2101     Co2111   2.074       .  S
C2105      C2117   1.457       .  S
C2105      C4487   1.532       .  S
C2105      N2121   1.376       .  A
Co2107    Cl2118   2.405       .  S
N2108      C2119   1.372       .  A
C2109      C3234   1.493       .  S
Co2111    Cl2118   2.468       .  S
C2119      C5147   1.518       .  S
C2122      C2159   1.514       .  S
C2122      C5247   1.566       .  S
C2122      N2140   1.351       .  A
N2123      N2140   1.326       .  A
N2123      N2145   1.308       .  A
N2123     Co2160   2.082       .  S
C2124      C2162   1.434       .  S
C2124      N2149   1.328       .  A
C2124      H2169   1.081       .  S
H2125      C2166   1.080       .  S
C2126      C2130   1.457       .  S
C2126      N2150   1.338       .  A
C2126      H2155   1.082       .  S
Co2127     N2145   2.169       .  S
Co2127     N2135   2.090       .  S
Co2127     N2167   2.166       .  S
Co2127     N2143   2.080       .  S
Co2127    Cl2171   2.439       .  S
N2128      C2166   1.324       .  A
N2128      N2135   1.328       .  A
N2128     Co2129   2.027       .  S
Co2129     N2132   2.114       .  S
Co2129     N2149   2.049       .  S
Co2129     N2136   2.094       .  S
Co2129    Cl2171   2.449       .  S
C2130      C3214   1.490       .  S
C2130      N2168   1.360       .  A
N2131      N2138   1.316       .  A
N2131      N2161   1.310       .  A
N2131     Co2164   2.028       .  S
N2132      N2150   1.312       .  A
N2132      N2168   1.332       .  A
N2133      C2162   1.341       .  A
N2133      N2143   1.315       .  A
H2134      C2159   1.077       .  S
N2135      N2156   1.315       .  A
N2136      N2154   1.310       .  A
N2136      N2141   1.332       .  A
C2137      C2165   1.457       .  S
C2137      C3237   1.495       .  S
C2137      N2141   1.359       .  A
N2138      C2153   1.321       .  A
N2138     Co2160   2.022       .  S
C2139      C2142   1.495       .  S
C2139      N2167   1.365       .  A
C2139      H2173   1.081       .  S
C2142      C4727   1.526       .  S
C2142      N2163   1.347       .  A
N2143      N2149   1.329       .  A
N2144      C2170   1.323       .  A
N2144      N2146   1.317       .  A
N2144     Co2160   2.044       .  S
N2145      C2159   1.366       .  A
N2146      N2174   1.311       .  A
N2146     Co2164   2.007       .  S
H2147      C2170   1.080       .  S
H2148      C2165   1.082       .  S
N2150     Co2164   2.063       .  S
N2151      N2163   1.327       .  A
N2151      N2167   1.312       .  A
N2151     Co2160   2.062       .  S
C2152      C2166   1.429       .  S
C2152      C3417   1.431       .  S
C2152      N2156   1.347       .  A
C2153      C2172   1.428       .  S
C2153      H2157   1.073       .  S
N2154      C2165   1.336       .  A
N2154     Co2164   2.065       .  S
C2158      C2170   1.446       .  S
C2158      C3277   1.411       .  S
C2158      N2174   1.334       .  A
Co2160    Cl2171   2.440       .  S
N2161      C2172   1.340       .  A
C2162      C3744   1.421       .  S
Co2164    Cl2171   2.437       .  S
C2172      C3337   1.419       .  S
C2175      C2212   1.444       .  S
C2175      C3347   1.415       .  S
C2175      N2193   1.334       .  A
N2176      N2193   1.307       .  A
N2176      N2198   1.317       .  A
N2176     Co2213   2.020       .  S
C2177      C2215   1.481       .  S
C2177      N2202   1.354       .  A
C2177      H2222   1.081       .  S
H2178      C2219   1.081       .  S
C2179      C2183   1.451       .  S
C2179      N2203   1.330       .  A
C2179      H2208   1.081       .  S
Co2180     N2198   2.040       .  S
Co2180     N2188   2.093       .  S
Co2180     N2220   2.053       .  S
Co2180     N2196   2.062       .  S
Co2180    Cl2224   2.444       .  S
N2181      C2219   1.347       .  A
N2181      N2188   1.315       .  A
N2181     Co2182   2.093       .  S
Co2182     N2185   2.053       .  S
Co2182     N2202   2.122       .  S
Co2182     N2189   2.037       .  S
Co2182    Cl2224   2.441       .  S
C2183      C3397   1.430       .  S
C2183      N2221   1.337       .  A
N2184      N2191   1.313       .  A
N2184      N2214   1.342       .  A
N2184     Co2217   2.157       .  S
N2185      N2203   1.326       .  A
N2185      N2221   1.316       .  A
N2186      C2215   1.347       .  A
N2186      N2196   1.323       .  A
H2187      C2212   1.081       .  S
N2188      N2209   1.327       .  A
N2189      N2207   1.327       .  A
N2189      N2194   1.314       .  A
C2190      C2218   1.453       .  S
C2190      C3194   1.437       .  S
C2190      N2194   1.333       .  A
N2191      C2206   1.344       .  A
N2191     Co2213   2.081       .  S
C2192      C2195   1.459       .  S
C2192      N2220   1.333       .  A
C2192      H2226   1.082       .  S
C2195      C3287   1.456       .  S
C2195      N2216   1.338       .  A
N2196      N2202   1.314       .  A
N2197      C2223   1.338       .  A
N2197      N2199   1.314       .  A
N2197     Co2213   2.061       .  S
N2198      C2212   1.332       .  A
N2199      N2227   1.346       .  A
N2199     Co2217   2.180       .  S
H2200      C2223   1.081       .  S
H2201      C2218   1.082       .  S
N2203     Co2217   2.073       .  S
N2204      N2216   1.306       .  A
N2204      N2220   1.313       .  A
N2204     Co2213   2.030       .  S
C2205      C2219   1.467       .  S
C2205      C3217   1.491       .  S
C2205      N2209   1.353       .  A
C2206      C2225   1.464       .  S
C2206      H2210   1.081       .  S
N2207      C2218   1.328       .  A
N2207     Co2217   2.077       .  S
C2211      C2223   1.451       .  S
C2211      C3204   1.527       .  S
C2211      N2227   1.377       .  A
Co2213    Cl2224   2.425       .  S
N2214      C2225   1.372       .  A
C2215      C3247   1.501       .  S
Co2217    Cl2224   2.458       .  S
C2225      C4587   1.534       .  S
C2228      C2265   1.489       .  S
C2228      C5277   1.523       .  S
C2228      N2246   1.349       .  A
N2229      N2246   1.328       .  A
N2229      N2251   1.312       .  A
N2229     Co2266   2.080       .  S
C2230      C2268   1.438       .  S
C2230      N2255   1.330       .  A
C2230      H2275   1.081       .  S
H2231      C2272   1.081       .  S
C2232      C2236   1.460       .  S
C2232      N2256   1.341       .  A
C2232      H2261   1.081       .  S
Co2233     N2251   2.148       .  S
Co2233     N2241   2.068       .  S
Co2233     N2273   2.164       .  S
Co2233     N2249   2.064       .  S
Co2233    Cl2277   2.443       .  S
N2234      C2272   1.328       .  A
N2234      N2241   1.325       .  A
N2234     Co2235   2.038       .  S
Co2235     N2238   2.106       .  S
Co2235     N2255   2.043       .  S
Co2235     N2242   2.104       .  S
Co2235    Cl2277   2.452       .  S
C2236      C3187   1.494       .  S
C2236      N2274   1.358       .  A
N2237      N2244   1.314       .  A
N2237      N2267   1.311       .  A
N2237     Co2270   2.039       .  S
N2238      N2256   1.316       .  A
N2238      N2274   1.332       .  A
N2239      C2268   1.340       .  A
N2239      N2249   1.312       .  A
H2240      C2265   1.081       .  S
N2241      N2262   1.312       .  A
N2242      N2260   1.316       .  A
N2242      N2247   1.332       .  A
C2243      C2271   1.468       .  S
C2243      C3174   1.507       .  S
C2243      N2247   1.358       .  A
N2244      C2259   1.321       .  A
N2244     Co2266   2.022       .  S
C2245      C2248   1.500       .  S
C2245      N2273   1.367       .  A
C2245      H2279   1.081       .  S
C2248      C5014   1.527       .  S
C2248      N2269   1.343       .  A
N2249      N2255   1.326       .  A
N2250      C2276   1.324       .  A
N2250      N2252   1.316       .  A
N2250     Co2266   2.039       .  S
N2251      C2265   1.362       .  A
N2252      N2280   1.311       .  A
N2252     Co2270   2.031       .  S
H2253      C2276   1.079       .  S
H2254      C2271   1.082       .  S
N2256     Co2270   2.083       .  S
N2257      N2269   1.322       .  A
N2257      N2273   1.311       .  A
N2257     Co2266   2.053       .  S
C2258      C2272   1.438       .  S
C2258      C3524   1.425       .  S
C2258      N2262   1.342       .  A
C2259      C2278   1.431       .  S
C2259      H2263   1.076       .  S
N2260      C2271   1.345       .  A
N2260     Co2270   2.101       .  S
C2264      C2276   1.435       .  S
C2264      C3164   1.434       .  S
C2264      N2280   1.343       .  A
Co2266    Cl2277   2.418       .  S
N2267      C2278   1.345       .  A
C2268      C4067   1.425       .  S
Co2270    Cl2277   2.448       .  S
C2278      C3157   1.436       .  S
C2281      C2318   1.488       .  S
C2281      C4954   1.513       .  S
C2281      N2299   1.345       .  A
N2282      N2299   1.325       .  A
N2282      N2304   1.312       .  A
N2282     Co2319   2.064       .  S
C2283      C2321   1.436       .  S
C2283      N2308   1.330       .  A
C2283      H2328   1.081       .  S
H2284      C2325   1.082       .  S
C2285      C2289   1.473       .  S
C2285      N2309   1.335       .  A
C2285      H2314   1.075       .  S
Co2286     N2304   2.148       .  S
Co2286     N2294   2.077       .  S
Co2286     N2326   2.167       .  S
Co2286     N2302   2.072       .  S
Co2286    Cl2330   2.432       .  S
N2287      C2325   1.328       .  A
N2287      N2294   1.327       .  A
N2287     Co2288   2.037       .  S
Co2288     N2291   2.112       .  S
Co2288     N2308   2.050       .  S
Co2288     N2295   2.101       .  S
Co2288    Cl2330   2.449       .  S
C2289      C3144   1.527       .  S
C2289      N2327   1.365       .  A
N2290      N2297   1.317       .  A
N2290      N2320   1.314       .  A
N2290     Co2323   2.057       .  S
N2291      N2309   1.311       .  A
N2291      N2327   1.332       .  A
N2292      C2321   1.341       .  A
N2292      N2302   1.313       .  A
H2293      C2318   1.081       .  S
N2294      N2315   1.313       .  A
N2295      N2313   1.312       .  A
N2295      N2300   1.331       .  A
C2296      C2324   1.460       .  S
C2296      C3184   1.493       .  S
C2296      N2300   1.358       .  A
N2297      C2312   1.324       .  A
N2297     Co2319   2.024       .  S
C2298      C2301   1.496       .  S
C2298      N2326   1.367       .  A
C2298      H2332   1.081       .  S
C2301      C4857   1.523       .  S
C2301      N2322   1.343       .  A
N2302      N2308   1.328       .  A
N2303      C2329   1.322       .  A
N2303      N2305   1.317       .  A
N2303     Co2319   2.027       .  S
N2304      C2318   1.361       .  A
N2305      N2333   1.310       .  A
N2305     Co2323   2.022       .  S
H2306      C2329   1.079       .  S
H2307      C2324   1.082       .  S
N2309     Co2323   2.073       .  S
N2310      N2322   1.325       .  A
N2310      N2326   1.311       .  A
N2310     Co2319   2.055       .  S
C2311      C2325   1.437       .  S
C2311      C3114   1.427       .  S
C2311      N2315   1.342       .  A
C2312      C2331   1.430       .  S
C2312      H2316   1.077       .  S
N2313      C2324   1.341       .  A
N2313     Co2323   2.076       .  S
C2317      C2329   1.435       .  S
C2317      C3137   1.409       .  S
C2317      N2333   1.337       .  A
Co2319    Cl2330   2.442       .  S
N2320      C2331   1.348       .  A
C2321      C3477   1.422       .  S
Co2323    Cl2330   2.437       .  S
C2331      C3127   1.435       .  S
C2334      C2371   1.444       .  S
C2334      C3107   1.435       .  S
C2334      N2352   1.340       .  A
N2335      N2352   1.309       .  A
N2335      N2357   1.313       .  A
N2335     Co2372   2.026       .  S
C2336      C2374   1.483       .  S
C2336      N2361   1.357       .  A
C2336      H2381   1.081       .  S
H2337      C2378   1.081       .  S
C2338      C2342   1.449       .  S
C2338      N2362   1.330       .  A
C2338      H2367   1.081       .  S
Co2339     N2357   2.025       .  S
Co2339     N2347   2.059       .  S
Co2339     N2379   2.021       .  S
Co2339     N2355   2.057       .  S
Co2339    Cl2383   2.427       .  S
N2340      C2378   1.357       .  A
N2340      N2347   1.312       .  A
N2340     Co2341   2.119       .  S
Co2341     N2344   2.042       .  S
Co2341     N2361   2.129       .  S
Co2341     N2348   2.046       .  S
Co2341    Cl2383   2.453       .  S
C2342      C3087   1.426       .  S
C2342      N2380   1.334       .  A
N2343      N2350   1.314       .  A
N2343      N2373   1.340       .  A
N2343     Co2376   2.152       .  S
N2344      N2362   1.327       .  A
N2344      N2380   1.313       .  A
N2345      C2374   1.344       .  A
N2345      N2355   1.322       .  A
H2346      C2371   1.075       .  S
N2347      N2368   1.318       .  A
N2348      N2366   1.329       .  A
N2348      N2353   1.314       .  A
C2349      C2377   1.443       .  S
C2349      C4107   1.420       .  S
C2349      N2353   1.333       .  A
N2350      C2365   1.344       .  A
N2350     Co2372   2.089       .  S
C2351      C2354   1.440       .  S
C2351      N2379   1.326       .  A
C2351      H2385   1.081       .  S
C2354      C3097   1.413       .  S
C2354      N2375   1.340       .  A
N2355      N2361   1.313       .  A
N2356      C2382   1.342       .  A
N2356      N2358   1.313       .  A
N2356     Co2372   2.069       .  S
N2357      C2371   1.325       .  A
N2358      N2386   1.342       .  A
N2358     Co2376   2.161       .  S
H2359      C2382   1.081       .  S
H2360      C2377   1.081       .  S
N2362     Co2376   2.071       .  S
N2363      N2375   1.309       .  A
N2363      N2379   1.315       .  A
N2363     Co2372   2.031       .  S
C2364      C2378   1.485       .  S
C2364      C3147   1.503       .  S
C2364      N2368   1.346       .  A
C2365      C2384   1.465       .  S
C2365      H2369   1.081       .  S
N2366      C2377   1.329       .  A
N2366     Co2376   2.074       .  S
C2370      C2382   1.455       .  S
C2370      C5117   1.521       .  S
C2370      N2386   1.372       .  A
Co2372    Cl2383   2.432       .  S
N2373      C2384   1.371       .  A
C2374      C3177   1.498       .  S
Co2376    Cl2383   2.452       .  S
C2384      C5174   1.531       .  S
C2387      C2424   1.492       .  S
C2387      C5127   1.526       .  S
C2387      N2405   1.349       .  A
N2388      N2405   1.328       .  A
N2388      N2410   1.312       .  A
N2388     Co2425   2.072       .  S
C2389      C2427   1.439       .  S
C2389      N2414   1.330       .  A
C2389      H2434   1.081       .  S
H2390      C2431   1.081       .  S
C2391      C2395   1.464       .  S
C2391      N2415   1.340       .  A
C2391      H2420   1.082       .  S
Co2392     N2410   2.153       .  S
Co2392     N2400   2.069       .  S
Co2392     N2432   2.152       .  S
Co2392     N2408   2.072       .  S
Co2392    Cl2436   2.432       .  S
N2393      C2431   1.329       .  A
N2393      N2400   1.327       .  A
N2393     Co2394   2.044       .  S
Co2394     N2397   2.106       .  S
Co2394     N2414   2.052       .  S
Co2394     N2401   2.110       .  S
Co2394    Cl2436   2.452       .  S
C2395      C3074   1.498       .  S
C2395      N2433   1.358       .  A
N2396      N2403   1.314       .  A
N2396      N2426   1.310       .  A
N2396     Co2429   2.036       .  S
N2397      N2415   1.315       .  A
N2397      N2433   1.331       .  A
N2398      C2427   1.339       .  A
N2398      N2408   1.313       .  A
H2399      C2424   1.081       .  S
N2400      N2421   1.312       .  A
N2401      N2419   1.311       .  A
N2401      N2406   1.335       .  A
C2402      C2430   1.456       .  S
C2402      C3067   1.501       .  S
C2402      N2406   1.363       .  A
N2403      C2418   1.319       .  A
N2403     Co2425   2.015       .  S
C2404      C2407   1.492       .  S
C2404      N2432   1.363       .  A
C2404      H2438   1.081       .  S
C2407      C5027   1.519       .  S
C2407      N2428   1.346       .  A
N2408      N2414   1.329       .  A
N2409      C2435   1.325       .  A
N2409      N2411   1.318       .  A
N2409     Co2425   2.048       .  S
N2410      C2424   1.362       .  A
N2411      N2439   1.312       .  A
N2411     Co2429   2.023       .  S
H2412      C2435   1.080       .  S
H2413      C2430   1.082       .  S
N2415     Co2429   2.078       .  S
N2416      N2428   1.325       .  A
N2416      N2432   1.310       .  A
N2416     Co2425   2.059       .  S
C2417      C2431   1.437       .  S
C2417      C3384   1.423       .  S
C2417      N2421   1.341       .  A
C2418      C2437   1.431       .  S
C2418      H2422   1.078       .  S
N2419      C2430   1.336       .  A
N2419     Co2429   2.066       .  S
C2423      C2435   1.443       .  S
C2423      C3167   1.414       .  S
C2423      N2439   1.337       .  A
Co2425    Cl2436   2.437       .  S
N2426      C2437   1.345       .  A
C2427      C3054   1.423       .  S
Co2429    Cl2436   2.434       .  S
C2437      C3094   1.436       .  S
C2440      C2477   1.446       .  S
C2440      C3104   1.433       .  S
C2440      N2458   1.339       .  A
N2441      N2458   1.308       .  A
N2441      N2463   1.314       .  A
N2441     Co2478   2.030       .  S
C2442      C2480   1.474       .  S
C2442      N2467   1.352       .  A
C2442      H2487   1.081       .  S
H2443      C2484   1.081       .  S
C2444      C2448   1.448       .  S
C2444      N2468   1.331       .  A
C2444      H2473   1.081       .  S
Co2445     N2463   2.034       .  S
Co2445     N2453   2.060       .  S
Co2445     N2485   2.042       .  S
Co2445     N2461   2.079       .  S
Co2445    Cl2489   2.442       .  S
N2446      C2484   1.354       .  A
N2446      N2453   1.313       .  A
N2446     Co2447   2.115       .  S
Co2447     N2450   2.044       .  S
Co2447     N2467   2.114       .  S
Co2447     N2454   2.055       .  S
Co2447    Cl2489   2.446       .  S
C2448      C3377   1.423       .  S
C2448      N2486   1.334       .  A
N2449      N2456   1.314       .  A
N2449      N2479   1.342       .  A
N2449     Co2482   2.160       .  S
N2450      N2468   1.327       .  A
N2450      N2486   1.314       .  A
N2451      C2480   1.350       .  A
N2451      N2461   1.324       .  A
H2452      C2477   1.080       .  S
N2453      N2474   1.321       .  A
N2454      N2472   1.328       .  A
N2454      N2459   1.316       .  A
C2455      C2483   1.448       .  S
C2455      C3954   1.437       .  S
C2455      N2459   1.337       .  A
N2456      C2471   1.342       .  A
N2456     Co2478   2.070       .  S
C2457      C2460   1.448       .  S
C2457      N2485   1.333       .  A
C2457      H2491   1.081       .  S
C2460      C3124   1.418       .  S
C2460      N2481   1.333       .  A
N2461      N2467   1.317       .  A
N2462      C2488   1.341       .  A
N2462      N2464   1.314       .  A
N2462     Co2478   2.078       .  S
N2463      C2477   1.330       .  A
N2464      N2492   1.341       .  A
N2464     Co2482   2.156       .  S
H2465      C2488   1.081       .  S
H2466      C2483   1.081       .  S
N2468     Co2482   2.074       .  S
N2469      N2481   1.307       .  A
N2469      N2485   1.316       .  A
N2469     Co2478   2.022       .  S
C2470      C2484   1.478       .  S
C2470      C3077   1.493       .  S
C2470      N2474   1.344       .  A
C2471      C2490   1.455       .  S
C2471      H2475   1.081       .  S
N2472      C2483   1.333       .  A
N2472     Co2482   2.078       .  S
C2476      C2488   1.458       .  S
C2476      C4964   1.523       .  S
C2476      N2492   1.371       .  A
Co2478    Cl2489   2.426       .  S
N2479      C2490   1.371       .  A
C2480      C3044   1.496       .  S
Co2482    Cl2489   2.459       .  S
C2490      C5187   1.519       .  S
C2493      C2530   1.487       .  S
C2493      C5284   1.521       .  S
C2493      N2511   1.351       .  A
N2494      N2511   1.330       .  A
N2494      N2516   1.314       .  A
N2494     Co2531   2.077       .  S
C2495      C2533   1.433       .  S
C2495      N2520   1.327       .  A
C2495      H2540   1.081       .  S
H2496      C2537   1.081       .  S
C2497      C2501   1.461       .  S
C2497      N2521   1.340       .  A
C2497      H2526   1.082       .  S
Co2498     N2516   2.157       .  S
Co2498     N2506   2.069       .  S
Co2498     N2538   2.164       .  S
Co2498     N2514   2.071       .  S
Co2498    Cl2542   2.435       .  S
N2499      C2537   1.327       .  A
N2499      N2506   1.325       .  A
N2499     Co2500   2.033       .  S
Co2500     N2503   2.106       .  S
Co2500     N2520   2.039       .  S
Co2500     N2507   2.110       .  S
Co2500    Cl2542   2.459       .  S
C2501      C3064   1.501       .  S
C2501      N2539   1.360       .  A
N2502      N2509   1.317       .  A
N2502      N2532   1.311       .  A
N2502     Co2535   2.013       .  S
N2503      N2521   1.314       .  A
N2503      N2539   1.333       .  A
N2504      C2533   1.340       .  A
N2504      N2514   1.315       .  A
H2505      C2530   1.081       .  S
N2506      N2527   1.312       .  A
N2507      N2525   1.315       .  A
N2507      N2512   1.333       .  A
C2508      C2536   1.462       .  S
C2508      C3047   1.501       .  S
C2508      N2512   1.359       .  A
N2509      C2524   1.324       .  A
N2509     Co2531   2.039       .  S
C2510      C2513   1.495       .  S
C2510      N2538   1.366       .  A
C2510      H2544   1.081       .  S
C2513      C4867   1.528       .  S
C2513      N2534   1.346       .  A
N2514      N2520   1.327       .  A
N2515      C2541   1.320       .  A
N2515      N2517   1.316       .  A
N2515     Co2531   2.021       .  S
N2516      C2530   1.360       .  A
N2517      N2545   1.313       .  A
N2517     Co2535   2.041       .  S
H2518      C2541   1.077       .  S
H2519      C2536   1.082       .  S
N2521     Co2535   2.083       .  S
N2522      N2534   1.328       .  A
N2522      N2538   1.313       .  A
N2522     Co2531   2.077       .  S
C2523      C2537   1.435       .  S
C2523      C3037   1.420       .  S
C2523      N2527   1.343       .  A
C2524      C2543   1.441       .  S
C2524      H2528   1.080       .  S
N2525      C2536   1.339       .  A
N2525     Co2535   2.076       .  S
C2529      C2541   1.424       .  S
C2529      C3134   1.421       .  S
C2529      N2545   1.344       .  A
Co2531    Cl2542   2.439       .  S
N2532      C2543   1.334       .  A
C2533      C3997   1.419       .  S
Co2535    Cl2542   2.436       .  S
C2543      C3154   1.408       .  S
C2546      C2583   1.442       .  S
C2546      C3007   1.408       .  S
C2546      N2564   1.331       .  A
N2547      N2564   1.306       .  A
N2547      N2569   1.317       .  A
N2547     Co2584   2.019       .  S
C2548      C2586   1.475       .  S
C2548      N2573   1.351       .  A
C2548      H2593   1.081       .  S
H2549      C2590   1.081       .  S
C2550      C2554   1.451       .  S
C2550      N2574   1.329       .  A
C2550      H2579   1.082       .  S
Co2551     N2569   2.027       .  S
Co2551     N2559   2.082       .  S
Co2551     N2591   2.040       .  S
Co2551     N2567   2.084       .  S
Co2551    Cl2595   2.464       .  S
N2552      C2590   1.351       .  A
N2552      N2559   1.316       .  A
N2552     Co2553   2.111       .  S
Co2553     N2556   2.043       .  S
Co2553     N2573   2.111       .  S
Co2553     N2560   2.048       .  S
Co2553    Cl2595   2.435       .  S
C2554      C3117   1.427       .  S
C2554      N2592   1.334       .  A
N2555      N2562   1.312       .  A
N2555      N2585   1.346       .  A
N2555     Co2588   2.173       .  S
N2556      N2574   1.326       .  A
N2556      N2592   1.313       .  A
N2557      C2586   1.353       .  A
N2557      N2567   1.326       .  A
H2558      C2583   1.081       .  S
N2559      N2580   1.325       .  A
N2560      N2578   1.329       .  A
N2560      N2565   1.315       .  A
C2561      C2589   1.446       .  S
C2561      C3257   1.426       .  S
C2561      N2565   1.333       .  A
N2562      C2577   1.342       .  A
N2562     Co2584   2.078       .  S
C2563      C2566   1.465       .  S
C2563      N2591   1.328       .  A
C2563      H2597   1.081       .  S
C2566      C2994   1.442       .  S
C2566      N2587   1.327       .  A
N2567      N2573   1.315       .  A
N2568      C2594   1.336       .  A
N2568      N2570   1.311       .  A
N2568     Co2584   2.047       .  S
N2569      C2583   1.328       .  A
N2570      N2598   1.344       .  A
N2570     Co2588   2.169       .  S
H2571      C2594   1.079       .  S
H2572      C2589   1.081       .  S
N2574     Co2588   2.070       .  S
N2575      N2587   1.306       .  A
N2575      N2591   1.313       .  A
N2575     Co2584   2.024       .  S
C2576      C2590   1.474       .  S
C2576      C3014   1.494       .  S
C2576      N2580   1.350       .  A
C2577      C2596   1.464       .  S
C2577      H2581   1.081       .  S
N2578      C2589   1.332       .  A
N2578     Co2588   2.079       .  S
C2582      C2594   1.444       .  S
C2582      C4697   1.519       .  S
C2582      N2598   1.376       .  A
Co2584    Cl2595   2.409       .  S
N2585      C2596   1.377       .  A
C2586      C3024   1.503       .  S
Co2588    Cl2595   2.462       .  S
C2596      C4937   1.541       .  S
C2599      C2636   1.485       .  S
C2599      C5197   1.530       .  S
C2599      N2617   1.355       .  A
N2600      N2617   1.334       .  A
N2600      N2622   1.312       .  A
N2600     Co2637   2.105       .  S
C2601      C2639   1.431       .  S
C2601      N2626   1.325       .  A
C2601      H2646   1.081       .  S
H2602      C2643   1.082       .  S
C2603      C2607   1.463       .  S
C2603      N2627   1.342       .  A
C2603      H2632   1.081       .  S
Co2604     N2622   2.140       .  S
Co2604     N2612   2.071       .  S
Co2604     N2644   2.161       .  S
Co2604     N2620   2.082       .  S
Co2604    Cl2648   2.439       .  S
N2605      C2643   1.331       .  A
N2605      N2612   1.326       .  A
N2605     Co2606   2.051       .  S
Co2606     N2609   2.096       .  S
Co2606     N2626   2.033       .  S
Co2606     N2613   2.113       .  S
Co2606    Cl2648   2.450       .  S
C2607      C3017   1.493       .  S
C2607      N2645   1.357       .  A
N2608      N2615   1.318       .  A
N2608      N2638   1.311       .  A
N2608     Co2641   2.031       .  S
N2609      N2627   1.314       .  A
N2609      N2645   1.331       .  A
N2610      C2639   1.344       .  A
N2610      N2620   1.314       .  A
H2611      C2636   1.081       .  S
N2612      N2633   1.312       .  A
N2613      N2631   1.312       .  A
N2613      N2618   1.333       .  A
C2614      C2642   1.458       .  S
C2614      C2984   1.498       .  S
C2614      N2618   1.361       .  A
N2615      C2630   1.317       .  A
N2615     Co2637   2.012       .  S
C2616      C2619   1.493       .  S
C2616      N2644   1.364       .  A
C2616      H2650   1.081       .  S
C2619      C2977   1.519       .  S
C2619      N2640   1.346       .  A
N2620      N2626   1.328       .  A
N2621      C2647   1.322       .  A
N2621      N2623   1.317       .  A
N2621     Co2637   2.057       .  S
N2622      C2636   1.360       .  A
N2623      N2651   1.316       .  A
N2623     Co2641   2.039       .  S
H2624      C2647   1.082       .  S
H2625      C2642   1.082       .  S
N2627     Co2641   2.087       .  S
N2628      N2640   1.325       .  A
N2628      N2644   1.313       .  A
N2628     Co2637   2.059       .  S
C2629      C2643   1.443       .  S
C2629      C3084   1.431       .  S
C2629      N2633   1.341       .  A
C2630      C2649   1.428       .  S
C2630      H2634   1.079       .  S
N2631      C2642   1.337       .  A
N2631     Co2641   2.061       .  S
C2635      C2647   1.454       .  S
C2635      C2954   1.448       .  S
C2635      N2651   1.341       .  A
Co2637    Cl2648   2.436       .  S
N2638      C2649   1.338       .  A
C2639      C4267   1.427       .  S
Co2641    Cl2648   2.440       .  S
C2649      C2967   1.412       .  S
C2652      C2689   1.439       .  S
C2652      C2934   1.438       .  S
C2652      N2670   1.345       .  A
N2653      N2670   1.311       .  A
N2653      N2675   1.316       .  A
N2653     Co2690   2.046       .  S
C2654      C2692   1.476       .  S
C2654      N2679   1.353       .  A
C2654      H2699   1.081       .  S
H2655      C2696   1.081       .  S
C2656      C2660   1.455       .  S
C2656      N2680   1.336       .  A
C2656      H2685   1.081       .  S
Co2657     N2675   2.033       .  S
Co2657     N2665   2.079       .  S
Co2657     N2697   2.047       .  S
Co2657     N2673   2.070       .  S
Co2657    Cl2701   2.440       .  S
N2658      C2696   1.353       .  A
N2658      N2665   1.314       .  A
N2658     Co2659   2.113       .  S
Co2659     N2662   2.050       .  S
Co2659     N2679   2.114       .  S
Co2659     N2666   2.056       .  S
Co2659    Cl2701   2.448       .  S
C2660      C3324   1.438       .  S
C2660      N2698   1.334       .  A
N2661      N2668   1.316       .  A
N2661      N2691   1.341       .  A
N2661     Co2694   2.155       .  S
N2662      N2680   1.328       .  A
N2662      N2698   1.315       .  A
N2663      C2692   1.345       .  A
N2663      N2673   1.322       .  A
H2664      C2689   1.077       .  S
N2665      N2686   1.325       .  A
N2666      N2684   1.324       .  A
N2666      N2671   1.314       .  A
C2667      C2695   1.456       .  S
C2667      C4367   1.457       .  S
C2667      N2671   1.341       .  A
N2668      C2683   1.349       .  A
N2668     Co2690   2.101       .  S
C2669      C2672   1.456       .  S
C2669      N2697   1.331       .  A
C2669      H2703   1.074       .  S
C2672      C2944   1.459       .  S
C2672      N2693   1.346       .  A
N2673      N2679   1.315       .  A
N2674      C2700   1.344       .  A
N2674      N2676   1.317       .  A
N2674     Co2690   2.084       .  S
N2675      C2689   1.328       .  A
N2676      N2704   1.345       .  A
N2676     Co2694   2.181       .  S
H2677      C2700   1.080       .  S
H2678      C2695   1.080       .  S
N2680     Co2694   2.093       .  S
N2681      N2693   1.315       .  A
N2681      N2697   1.314       .  A
N2681     Co2690   2.051       .  S
C2682      C2696   1.475       .  S
C2682      C3027   1.497       .  S
C2682      N2686   1.347       .  A
C2683      C2702   1.466       .  S
C2683      H2687   1.081       .  S
N2684      C2695   1.331       .  A
N2684     Co2694   2.068       .  S
C2688      C2700   1.457       .  S
C2688      C4997   1.532       .  S
C2688      N2704   1.376       .  A
Co2690    Cl2701   2.451       .  S
N2691      C2702   1.369       .  A
C2692      C2987   1.492       .  S
Co2694    Cl2701   2.460       .  S
C2702      C5217   1.530       .  S
C2705      C2742   1.488       .  S
C2705      C5207   1.521       .  S
C2705      N2723   1.349       .  A
N2706      N2723   1.328       .  A
N2706      N2728   1.314       .  A
N2706     Co2743   2.074       .  S
C2707      C2745   1.431       .  S
C2707      N2732   1.325       .  A
C2707      H2752   1.082       .  S
H2708      C2749   1.081       .  S
C2709      C2713   1.463       .  S
C2709      N2733   1.342       .  A
C2709      H2738   1.082       .  S
Co2710     N2728   2.155       .  S
Co2710     N2718   2.077       .  S
Co2710     N2750   2.174       .  S
Co2710     N2726   2.084       .  S
Co2710    Cl2754   2.445       .  S
N2711      C2749   1.330       .  A
N2711      N2718   1.326       .  A
N2711     Co2712   2.044       .  S
Co2712     N2715   2.092       .  S
Co2712     N2732   2.036       .  S
Co2712     N2719   2.122       .  S
Co2712    Cl2754   2.459       .  S
C2713      C2914   1.496       .  S
C2713      N2751   1.356       .  A
N2714      N2721   1.316       .  A
N2714      N2744   1.309       .  A
N2714     Co2747   2.022       .  S
N2715      N2733   1.314       .  A
N2715      N2751   1.331       .  A
N2716      C2745   1.344       .  A
N2716      N2726   1.317       .  A
H2717      C2742   1.081       .  S
N2718      N2739   1.314       .  A
N2719      N2737   1.316       .  A
N2719      N2724   1.335       .  A
C2720      C2748   1.462       .  S
C2720      C2924   1.505       .  S
C2720      N2724   1.363       .  A
N2721      C2736   1.324       .  A
N2721     Co2743   2.020       .  S
C2722      C2725   1.509       .  S
C2722      N2750   1.369       .  A
C2722      H2756   1.080       .  S
C2725      C4944   1.539       .  S
C2725      N2746   1.340       .  A
N2726      N2732   1.328       .  A
N2727      C2753   1.324       .  A
N2727      N2729   1.315       .  A
N2727     Co2743   2.022       .  S
N2728      C2742   1.362       .  A
N2729      N2757   1.312       .  A
N2729     Co2747   2.042       .  S
H2730      C2753   1.078       .  S
H2731      C2748   1.082       .  S
N2733     Co2747   2.087       .  S
N2734      N2746   1.320       .  A
N2734      N2750   1.312       .  A
N2734     Co2743   2.052       .  S
C2735      C2749   1.438       .  S
C2735      C3227   1.425       .  S
C2735      N2739   1.344       .  A
C2736      C2755   1.435       .  S
C2736      H2740   1.080       .  S
N2737      C2748   1.338       .  A
N2737     Co2747   2.077       .  S
C2741      C2753   1.429       .  S
C2741      C3004   1.428       .  S
C2741      N2757   1.345       .  A
Co2743    Cl2754   2.437       .  S
N2744      C2755   1.337       .  A
C2745      C4177   1.426       .  S
Co2747    Cl2754   2.428       .  S
C2755      C2964   1.403       .  S
C2758      C2795   1.501       .  S
C2758      C5004   1.557       .  S
C2758      N2776   1.358       .  A
N2759      N2776   1.327       .  A
N2759      N2781   1.308       .  A
N2759     Co2796   2.097       .  S
C2760      C2798   1.446       .  S
C2760      N2785   1.331       .  A
C2760      H2805   1.081       .  S
H2761      C2802   1.081       .  S
C2762      C2766   1.460       .  S
C2762      N2786   1.339       .  A
C2762      H2791   1.082       .  S
Co2763     N2781   2.135       .  S
Co2763     N2771   2.074       .  S
Co2763     N2803   2.150       .  S
Co2763     N2779   2.076       .  S
Co2763    Cl2807   2.448       .  S
N2764      C2802   1.326       .  A
N2764      N2771   1.327       .  A
N2764     Co2765   2.050       .  S
Co2765     N2768   2.107       .  S
Co2765     N2785   2.056       .  S
Co2765     N2772   2.105       .  S
Co2765    Cl2807   2.449       .  S
C2766      C2904   1.496       .  S
C2766      N2804   1.359       .  A
N2767      N2774   1.317       .  A
N2767      N2797   1.319       .  A
N2767     Co2800   2.043       .  S
N2768      N2786   1.313       .  A
N2768      N2804   1.332       .  A
N2769      C2798   1.344       .  A
N2769      N2779   1.315       .  A
H2770      C2795   1.076       .  S
N2771      N2792   1.316       .  A
N2772      N2790   1.314       .  A
N2772      N2777   1.334       .  A
C2773      C2801   1.453       .  S
C2773      C2917   1.490       .  S
C2773      N2777   1.360       .  A
N2774      C2789   1.319       .  A
N2774     Co2796   2.040       .  S
C2775      C2778   1.485       .  S
C2775      N2803   1.359       .  A
C2775      H2809   1.080       .  S
C2778      C2897   1.523       .  S
C2778      N2799   1.352       .  A
N2779      N2785   1.326       .  A
N2780      C2806   1.327       .  A
N2780      N2782   1.318       .  A
N2780     Co2796   2.059       .  S
N2781      C2795   1.358       .  A
N2782      N2810   1.318       .  A
N2782     Co2800   2.039       .  S
H2783      C2806   1.078       .  S
H2784      C2801   1.081       .  S
N2786     Co2800   2.067       .  S
N2787      N2799   1.331       .  A
N2787      N2803   1.316       .  A
N2787     Co2796   2.095       .  S
C2788      C2802   1.436       .  S
C2788      C3057   1.425       .  S
C2788      N2792   1.344       .  A
C2789      C2808   1.442       .  S
C2789      H2793   1.079       .  S
N2790      C2801   1.335       .  A
N2790     Co2800   2.069       .  S
C2794      C2806   1.458       .  S
C2794      C2957   1.455       .  S
C2794      N2810   1.340       .  A
Co2796    Cl2807   2.443       .  S
N2797      C2808   1.345       .  A
C2798      C3197   1.450       .  S
Co2800    Cl2807   2.446       .  S
C2808      C2947   1.433       .  S
C2811      C2848   1.452       .  S
C2811      C2937   1.446       .  S
C2811      N2829   1.340       .  A
N2812      N2829   1.308       .  A
N2812      N2834   1.313       .  A
N2812     Co2849   2.033       .  S
C2813      C2851   1.479       .  S
C2813      N2838   1.353       .  A
C2813      H2858   1.081       .  S
H2814      C2855   1.081       .  S
C2815      C2819   1.447       .  S
C2815      N2839   1.329       .  A
C2815      H2844   1.081       .  S
Co2816     N2834   2.040       .  S
Co2816     N2824   2.056       .  S
Co2816     N2856   2.028       .  S
Co2816     N2832   2.085       .  S
Co2816    Cl2860   2.434       .  S
N2817      C2855   1.353       .  A
N2817      N2824   1.313       .  A
N2817     Co2818   2.115       .  S
Co2818     N2821   2.034       .  S
Co2818     N2838   2.110       .  S
Co2818     N2825   2.052       .  S
Co2818    Cl2860   2.449       .  S
C2819      C3034   1.418       .  S
C2819      N2857   1.331       .  A
N2820      N2827   1.314       .  A
N2820      N2850   1.343       .  A
N2820     Co2853   2.171       .  S
N2821      N2839   1.327       .  A
N2821      N2857   1.312       .  A
N2822      C2851   1.352       .  A
N2822      N2832   1.324       .  A
H2823      C2848   1.081       .  S
N2824      N2845   1.321       .  A
N2825      N2843   1.328       .  A
N2825      N2830   1.316       .  A
C2826      C2854   1.450       .  S
C2826      C4157   1.430       .  S
C2826      N2830   1.336       .  A
N2827      C2842   1.343       .  A
N2827     Co2849   2.071       .  S
C2828      C2831   1.444       .  S
C2828      N2856   1.329       .  A
C2828      H2862   1.081       .  S
C2831      C2997   1.411       .  S
C2831      N2852   1.335       .  A
N2832      N2838   1.314       .  A
N2833      C2859   1.345       .  A
N2833      N2835   1.313       .  A
N2833     Co2849   2.083       .  S
N2834      C2848   1.331       .  A
N2835      N2863   1.342       .  A
N2835     Co2853   2.152       .  S
H2836      C2859   1.082       .  S
H2837      C2854   1.081       .  S
N2839     Co2853   2.067       .  S
N2840      N2852   1.306       .  A
N2840      N2856   1.315       .  A
N2840     Co2849   2.018       .  S
C2841      C2855   1.479       .  S
C2841      C2907   1.494       .  S
C2841      N2845   1.345       .  A
C2842      C2861   1.455       .  S
C2842      H2846   1.081       .  S
N2843      C2854   1.331       .  A
N2843     Co2853   2.081       .  S
C2847      C2859   1.459       .  S
C2847      C4707   1.523       .  S
C2847      N2863   1.371       .  A
Co2849    Cl2860   2.426       .  S
N2850      C2861   1.373       .  A
C2851      C2927   1.509       .  S
Co2853    Cl2860   2.453       .  S
C2861      C5227   1.524       .  S
O2864      C2872   1.258       .  A
O2864     Co2884   1.989   1_545  S
O2865      C2873   1.258       .  A
O2865     Co2885   1.991   1_565  S
O2866      C2874   1.280       .  A
O2866     Co2886   2.072       .  S
O2867      C2875   1.279       .  A
O2867     Co2887   2.074       .  S
O2868      C2874   1.260       .  A
O2868     Co2885   1.981       .  S
O2869      C2875   1.262       .  A
O2869     Co2884   1.982       .  S
O2870      C2873   1.280       .  A
O2870     Co2887   2.083       .  S
O2871      C2872   1.275       .  A
O2871     Co2886   2.072       .  S
C2872      C4294   1.534       .  S
C2873      C3307   1.535       .  S
C2874      C2974   1.542       .  S
C2875      C3927   1.552       .  S
O2876      C2889   1.271       .  A
O2876     Co2884   2.054       .  S
O2877      C2890   1.275       .  A
O2877     Co2885   2.070       .  S
O2878      C2891   1.257       .  A
O2878     Co2886   1.984       .  S
O2879      C2892   1.262       .  A
O2879     Co2887   1.992       .  S
O2880      C2892   1.282       .  A
O2880     Co2885   2.079   1_565  S
O2881      C2891   1.284       .  A
O2881     Co2884   2.095   1_545  S
O2882      C2889   1.261       .  A
O2882     Co2887   1.991       .  S
O2883      C2890   1.257       .  A
O2883     Co2886   1.983       .  S
Co2884     O2888   2.151       .  S
Co2885     O2888   2.155   1_545  S
Co2886     O2888   2.142   1_545  S
Co2887     O2888   2.149       .  S
C2889      C3787   1.541       .  S
C2890      C2894   1.531       .  S
C2891      C4227   1.531       .  S
C2892      C3207   1.548       .  S
C2893      C2894   1.419       .  A
C2893      C2898   1.426       .  A
C2893     Br2900   1.930       .  S
C2894      C2895   1.427       .  A
C2895      C2896   1.426       .  A
C2895     Br2902   1.930       .  S
C2896      C2897   1.413       .  A
C2896     Br2901   1.931       .  S
C2897      C2898   1.418       .  A
C2898     Br2899   1.918       .  S
C2903      C2904   1.415       .  A
C2903      C2908   1.419       .  A
C2903     Br2910   1.928       .  S
C2904      C2905   1.411       .  A
C2905      C2906   1.411       .  A
C2905     Br2912   1.931       .  S
C2906      C2907   1.412       .  A
C2906     Br2911   1.932       .  S
C2907      C2908   1.414       .  A
C2908     Br2909   1.929       .  S
C2913      C2914   1.416       .  A
C2913      C2918   1.419       .  A
C2913     Br2920   1.928       .  S
C2914      C2915   1.411       .  A
C2915      C2916   1.409       .  A
C2915     Br2922   1.922       .  S
C2916      C2917   1.409       .  A
C2916     Br2921   1.932       .  S
C2917      C2918   1.412       .  A
C2918     Br2919   1.926       .  S
C2923      C2924   1.414       .  A
C2923      C2928   1.414       .  A
C2923     Br2930   1.935       .  S
C2924      C2925   1.413       .  A
C2925      C2926   1.423       .  A
C2925     Br2932   1.927       .  S
C2926      C2927   1.418       .  A
C2926     Br2931   1.927       .  S
C2927      C2928   1.419       .  A
C2928     Br2929   1.935       .  S
C2933      C2934   1.399       .  A
C2933      C2938   1.386       .  A
C2933     Br2940   1.933       .  S
C2934      C2935   1.411       .  A
C2935      C2936   1.392       .  A
C2935     Br2942   1.944       .  S
C2936      C2937   1.426       .  A
C2936     Br2941   1.949       .  S
C2937      C2938   1.407       .  A
C2938     Br2939   1.933       .  S
C2943      C2944   1.404       .  A
C2943      C2948   1.389       .  A
C2943     Br2950   1.918       .  S
C2944      C2945   1.401       .  A
C2945      C2946   1.390       .  A
C2945     Br2952   1.928       .  S
C2946      C2947   1.416       .  A
C2946     Br2951   1.938       .  S
C2947      C2948   1.403       .  A
C2948     Br2949   1.935       .  S
C2953      C2954   1.400       .  A
C2953      C2958   1.381       .  A
C2953     Br2960   1.921       .  S
C2954      C2955   1.428       .  A
C2955      C2956   1.399       .  A
C2955     Br2962   1.938       .  S
C2956      C2957   1.401       .  A
C2956     Br2961   1.930       .  S
C2957      C2958   1.392       .  A
C2958     Br2959   1.908       .  S
C2963      C2964   1.389       .  A
C2963      C2968   1.377       .  A
C2963     Br2970   1.929       .  S
C2964      C2965   1.409       .  A
C2965      C2966   1.379       .  A
C2965     Br2972   1.935       .  S
C2966      C2967   1.398       .  A
C2966     Br2971   1.938       .  S
C2967      C2968   1.414       .  A
C2968     Br2969   1.940       .  S
C2973      C2974   1.428       .  A
C2973      C2978   1.424       .  A
C2973     Br2980   1.933       .  S
C2974      C2975   1.434       .  A
C2975      C2976   1.430       .  A
C2975     Br2982   1.932       .  S
C2976      C2977   1.410       .  A
C2976     Br2981   1.928       .  S
C2977      C2978   1.410       .  A
C2978     Br2979   1.926       .  S
C2983      C2984   1.416       .  A
C2983      C2988   1.419       .  A
C2983     Br2990   1.927       .  S
C2984      C2985   1.414       .  A
C2985      C2986   1.412       .  A
C2985     Br2992   1.931       .  S
C2986      C2987   1.408       .  A
C2986     Br2991   1.929       .  S
C2987      C2988   1.412       .  A
C2988     Br2989   1.926       .  S
C2993      C2994   1.397       .  A
C2993      C2998   1.378       .  A
C2993     Br3000   1.928       .  S
C2994      C2995   1.432       .  A
C2995      C2996   1.388       .  A
C2995     Br3002   1.941       .  S
C2996      C2997   1.388       .  A
C2996     Br3001   1.939       .  S
C2997      C2998   1.406       .  A
C2998     Br2999   1.938       .  S
C3003      C3004   1.425       .  A
C3003      C3008   1.385       .  A
C3003     Br3010   1.940       .  S
C3004      C3005   1.400       .  A
C3005      C3006   1.380       .  A
C3005     Br3012   1.938       .  S
C3006      C3007   1.405       .  A
C3006     Br3011   1.939       .  S
C3007      C3008   1.389       .  A
C3008     Br3009   1.940       .  S
C3013      C3014   1.412       .  A
C3013      C3018   1.413       .  A
C3013     Br3020   1.928       .  S
C3014      C3015   1.412       .  A
C3015      C3016   1.418       .  A
C3015     Br3022   1.926       .  S
C3016      C3017   1.411       .  A
C3016     Br3021   1.927       .  S
C3017      C3018   1.411       .  A
C3018     Br3019   1.929       .  S
C3023      C3024   1.411       .  A
C3023      C3028   1.413       .  A
C3023     Br3030   1.923       .  S
C3024      C3025   1.417       .  A
C3025      C3026   1.421       .  A
C3025     Br3032   1.926       .  S
C3026      C3027   1.413       .  A
C3026     Br3031   1.926       .  S
C3027      C3028   1.411       .  A
C3028     Br3029   1.930       .  S
C3033      C3034   1.402       .  A
C3033      C3038   1.390   1_655  A
C3033     Br3040   1.930       .  S
C3034      C3035   1.401       .  A
C3035      C3036   1.382   1_655  A
C3035     Br3042   1.936       .  S
C3036      C3037   1.405       .  A
C3036     Br3041   1.936       .  S
C3037      C3038   1.399       .  A
C3038     Br3039   1.930       .  S
C3043      C3044   1.413       .  A
C3043      C3048   1.422       .  A
C3043     Br3050   1.927       .  S
C3044      C3045   1.407       .  A
C3045      C3046   1.410       .  A
C3045     Br3052   1.919       .  S
C3046      C3047   1.410       .  A
C3046     Br3051   1.926       .  S
C3047      C3048   1.417       .  A
C3048     Br3049   1.926       .  S
C3053      C3054   1.403       .  A
C3053      C3058   1.386   1_455  A
C3053     Br3060   1.935       .  S
C3054      C3055   1.400       .  A
C3055      C3056   1.392   1_455  A
C3055     Br3062   1.930       .  S
C3056      C3057   1.402       .  A
C3056     Br3061   1.930       .  S
C3057      C3058   1.405       .  A
C3058     Br3059   1.936       .  S
C3063      C3064   1.416       .  A
C3063      C3068   1.422       .  A
C3063     Br3070   1.927       .  S
C3064      C3065   1.412       .  A
C3065      C3066   1.411       .  A
C3065     Br3072   1.930       .  S
C3066      C3067   1.413       .  A
C3066     Br3071   1.930       .  S
C3067      C3068   1.415       .  A
C3068     Br3069   1.927       .  S
C3073      C3074   1.412       .  A
C3073      C3078   1.411       .  A
C3073     Br3080   1.929       .  S
C3074      C3075   1.416       .  A
C3075      C3076   1.419       .  A
C3075     Br3082   1.928       .  S
C3076      C3077   1.412       .  A
C3076     Br3081   1.928       .  S
C3077      C3078   1.412       .  A
C3078     Br3079   1.931       .  S
C3083      C3084   1.401       .  A
C3083      C3088   1.392       .  A
C3083     Br3090   1.928       .  S
C3084      C3085   1.408       .  A
C3085      C3086   1.386       .  A
C3085     Br3092   1.938       .  S
C3086      C3087   1.404       .  A
C3086     Br3091   1.937       .  S
C3087      C3088   1.403       .  A
C3088     Br3089   1.931       .  S
C3093      C3094   1.430       .  A
C3093      C3098   1.384       .  A
C3093     Br3100   1.941       .  S
C3094      C3095   1.402       .  A
C3095      C3096   1.379       .  A
C3095     Br3102   1.939       .  S
C3096      C3097   1.410       .  A
C3096     Br3101   1.940       .  S
C3097      C3098   1.386       .  A
C3098     Br3099   1.936       .  S
C3103      C3104   1.420       .  A
C3103      C3108   1.387       .  A
C3103     Br3110   1.949       .  S
C3104      C3105   1.403       .  A
C3105      C3106   1.386       .  A
C3105     Br3112   1.938       .  S
C3106      C3107   1.405       .  A
C3106     Br3111   1.937       .  S
C3107      C3108   1.415       .  A
C3108     Br3109   1.946       .  S
C3113      C3114   1.404       .  A
C3113      C3118   1.386       .  A
C3113     Br3120   1.936       .  S
C3114      C3115   1.402       .  A
C3115      C3116   1.392       .  A
C3115     Br3122   1.930       .  S
C3116      C3117   1.401       .  A
C3116     Br3121   1.928       .  S
C3117      C3118   1.405       .  A
C3118     Br3119   1.936       .  S
C3123      C3124   1.393       .  A
C3123      C3128   1.388       .  A
C3123     Br3130   1.928       .  S
C3124      C3125   1.405       .  A
C3125      C3126   1.381       .  A
C3125     Br3132   1.938       .  S
C3126      C3127   1.397       .  A
C3126     Br3131   1.928       .  S
C3127      C3128   1.421       .  A
C3128     Br3129   1.936       .  S
C3133      C3134   1.425       .  A
C3133      C3138   1.380       .  A
C3133     Br3140   1.941       .  S
C3134      C3135   1.391       .  A
C3135      C3136   1.376       .  A
C3135     Br3142   1.931       .  S
C3136      C3137   1.413       .  A
C3136     Br3141   1.936       .  S
C3137      C3138   1.387       .  A
C3138     Br3139   1.936       .  S
C3143      C3144   1.427       .  A
C3143      C3148   1.404       .  A
C3143     Br3150   1.923       .  S
C3144      C3145   1.432       .  A
C3145      C3146   1.428       .  A
C3145     Br3152   1.930       .  S
C3146      C3147   1.411       .  A
C3146     Br3151   1.926       .  S
C3147      C3148   1.402       .  A
C3148     Br3149   1.935       .  S
C3153      C3154   1.386       .  A
C3153      C3158   1.384       .  A
C3153     Br3160   1.937       .  S
C3154      C3155   1.403       .  A
C3155      C3156   1.379       .  A
C3155     Br3162   1.935       .  S
C3156      C3157   1.404       .  A
C3156     Br3161   1.937       .  S
C3157      C3158   1.429       .  A
C3158     Br3159   1.938       .  S
C3163      C3164   1.400       .  A
C3163      C3168   1.380       .  A
C3163     Br3170   1.933       .  S
C3164      C3165   1.425       .  A
C3165      C3166   1.384       .  A
C3165     Br3172   1.937       .  S
C3166      C3167   1.387       .  A
C3166     Br3171   1.933       .  S
C3167      C3168   1.407       .  A
C3168     Br3169   1.934       .  S
C3173      C3174   1.411       .  A
C3173      C3178   1.414       .  A
C3173     Br3180   1.925       .  S
C3174      C3175   1.418       .  A
C3175      C3176   1.422       .  A
C3175     Br3182   1.923       .  S
C3176      C3177   1.412       .  A
C3176     Br3181   1.927       .  S
C3177      C3178   1.412       .  A
C3178     Br3179   1.928       .  S
C3183      C3184   1.413       .  A
C3183      C3188   1.416       .  A
C3183     Br3190   1.930       .  S
C3184      C3185   1.411       .  A
C3185      C3186   1.413       .  A
C3185     Br3192   1.926       .  S
C3186      C3187   1.409       .  A
C3186     Br3191   1.927       .  S
C3187      C3188   1.412       .  A
C3188     Br3189   1.921       .  S
C3193      C3194   1.394       .  A
C3193      C3198   1.382   1_565  A
C3193     Br3200   1.938       .  S
C3194      C3195   1.405       .  A
C3195      C3196   1.398   1_565  A
C3195     Br3202   1.933       .  S
C3196      C3197   1.413       .  A
C3196     Br3201   1.933       .  S
C3197      C3198   1.407       .  A
C3198     Br3199   1.909       .  S
C3203      C3204   1.412       .  A
C3203      C3208   1.433       .  A
C3203     Br3210   1.925       .  S
C3204      C3205   1.414       .  A
C3205      C3206   1.425       .  A
C3205     Br3212   1.932       .  S
C3206      C3207   1.425       .  A
C3206     Br3211   1.921       .  S
C3207      C3208   1.432       .  A
C3208     Br3209   1.930       .  S
C3213      C3214   1.411       .  A
C3213      C3218   1.413       .  A
C3213     Br3220   1.928       .  S
C3214      C3215   1.411       .  A
C3215      C3216   1.416       .  A
C3215     Br3222   1.927       .  S
C3216      C3217   1.411       .  A
C3216     Br3221   1.927       .  S
C3217      C3218   1.411       .  A
C3218     Br3219   1.927       .  S
C3223      C3224   1.401       .  A
C3223      C3228   1.385   1_565  A
C3223     Br3230   1.935       .  S
C3224      C3225   1.402       .  A
C3225      C3226   1.393   1_565  A
C3225     Br3232   1.929       .  S
C3226      C3227   1.401       .  A
C3226     Br3231   1.929       .  S
C3227      C3228   1.404       .  A
C3228     Br3229   1.935       .  S
C3233      C3234   1.408       .  A
C3233      C3238   1.409       .  A
C3233     Br3240   1.927       .  S
C3234      C3235   1.415       .  A
C3235      C3236   1.419       .  A
C3235     Br3242   1.928       .  S
C3236      C3237   1.414       .  A
C3236     Br3241   1.928       .  S
C3237      C3238   1.412       .  A
C3238     Br3239   1.930       .  S
C3243      C3244   1.415       .  A
C3243      C3248   1.421       .  A
C3243     Br3250   1.927       .  S
C3244      C3245   1.409       .  A
C3245      C3246   1.413       .  A
C3245     Br3252   1.925       .  S
C3246      C3247   1.413       .  A
C3246     Br3251   1.931       .  S
C3247      C3248   1.416       .  A
C3248     Br3249   1.927       .  S
C3253      C3254   1.405       .  A
C3253      C3258   1.389       .  A
C3253     Br3260   1.933       .  S
C3254      C3255   1.401       .  A
C3255      C3256   1.393       .  A
C3255     Br3262   1.930       .  S
C3256      C3257   1.402       .  A
C3256     Br3261   1.930       .  S
C3257      C3258   1.401       .  A
C3258     Br3259   1.933       .  S
C3263      C3264   1.402       .  A
C3263      C3268   1.383       .  A
C3263     Br3270   1.936       .  S
C3264      C3265   1.426       .  A
C3265      C3266   1.389       .  A
C3265     Br3272   1.941       .  S
C3266      C3267   1.391       .  A
C3266     Br3271   1.936       .  S
C3267      C3268   1.406       .  A
C3268     Br3269   1.939       .  S
C3273      C3274   1.399       .  A
C3273      C3278   1.375       .  A
C3273     Br3280   1.926       .  S
C3274      C3275   1.431       .  A
C3275      C3276   1.386       .  A
C3275     Br3282   1.943       .  S
C3276      C3277   1.386       .  A
C3276     Br3281   1.936       .  S
C3277      C3278   1.406       .  A
C3278     Br3279   1.940       .  S
C3283      C3284   1.393       .  A
C3283      C3288   1.387       .  A
C3283     Br3290   1.936       .  S
C3284      C3285   1.410       .  A
C3285      C3286   1.391       .  A
C3285     Br3292   1.946       .  S
C3286      C3287   1.428       .  A
C3286     Br3291   1.948       .  S
C3287      C3288   1.415       .  A
C3288     Br3289   1.928       .  S
C3293      C3294   1.430       .  A
C3293      C3298   1.390       .  A
C3293     Br3300   1.939       .  S
C3294      C3295   1.398       .  A
C3295      C3296   1.380       .  A
C3295     Br3302   1.929       .  S
C3296      C3297   1.407       .  A
C3296     Br3301   1.938       .  S
C3297      C3298   1.389       .  A
C3298     Br3299   1.938       .  S
C3303      C3304   1.425       .  A
C3303      C3308   1.428       .  A
C3303     Br3310   1.929       .  S
C3304      C3305   1.407       .  A
C3305      C3306   1.418       .  A
C3305     Br3312   1.934       .  S
C3306      C3307   1.415       .  A
C3306     Br3311   1.879       .  S
C3307      C3308   1.416       .  A
C3308     Br3309   1.930       .  S
C3313      C3314   1.410       .  A
C3313      C3318   1.410       .  A
C3313     Br3320   1.929       .  S
C3314      C3315   1.411       .  A
C3315      C3316   1.417       .  A
C3315     Br3322   1.924       .  S
C3316      C3317   1.410       .  A
C3316     Br3321   1.924       .  S
C3317      C3318   1.413       .  A
C3318     Br3319   1.931       .  S
C3323      C3324   1.399       .  A
C3323      C3328   1.392       .  A
C3323     Br3330   1.922       .  S
C3324      C3325   1.405       .  A
C3325      C3326   1.393       .  A
C3325     Br3332   1.933       .  S
C3326      C3327   1.406       .  A
C3326     Br3331   1.934       .  S
C3327      C3328   1.400       .  A
C3328     Br3329   1.929       .  S
C3333      C3334   1.400       .  A
C3333      C3338   1.379       .  A
C3333     Br3340   1.933       .  S
C3334      C3335   1.388       .  A
C3335      C3336   1.379       .  A
C3335     Br3342   1.935       .  S
C3336      C3337   1.421       .  A
C3336     Br3341   1.940       .  S
C3337      C3338   1.402       .  A
C3338     Br3339   1.936       .  S
C3343      C3344   1.428       .  A
C3343      C3348   1.391       .  A
C3343     Br3350   1.937       .  S
C3344      C3345   1.402       .  A
C3345      C3346   1.382       .  A
C3345     Br3352   1.929       .  S
C3346      C3347   1.402       .  A
C3346     Br3351   1.939       .  S
C3347      C3348   1.391       .  A
C3348     Br3349   1.939       .  S
C3353      C3354   1.410       .  A
C3353      C3358   1.411       .  A
C3353     Br3360   1.922       .  S
C3354      C3355   1.417       .  A
C3355      C3356   1.419       .  A
C3355     Br3362   1.923       .  S
C3356      C3357   1.412       .  A
C3356     Br3361   1.927       .  S
C3357      C3358   1.406       .  A
C3358     Br3359   1.921       .  S
C3363      C3364   1.411       .  A
C3363      C3368   1.413       .  A
C3363     Br3370   1.923       .  S
C3364      C3365   1.415       .  A
C3365      C3366   1.419       .  A
C3365     Br3372   1.921       .  S
C3366      C3367   1.411       .  A
C3366     Br3371   1.927       .  S
C3367      C3368   1.410       .  A
C3368     Br3369   1.930       .  S
C3373      C3374   1.401       .  A
C3373      C3378   1.392   1_565  A
C3373     Br3380   1.930       .  S
C3374      C3375   1.403       .  A
C3375      C3376   1.385   1_565  A
C3375     Br3382   1.935       .  S
C3376      C3377   1.402       .  A
C3376     Br3381   1.935       .  S
C3377      C3378   1.401       .  A
C3378     Br3379   1.928       .  S
C3383      C3384   1.401       .  A
C3383      C3388   1.391   1_545  A
C3383     Br3390   1.930       .  S
C3384      C3385   1.403       .  A
C3385      C3386   1.384   1_545  A
C3385     Br3392   1.936       .  S
C3386      C3387   1.404       .  A
C3386     Br3391   1.936       .  S
C3387      C3388   1.403       .  A
C3388     Br3389   1.931       .  S
C3393      C3394   1.402       .  A
C3393      C3398   1.389   1_455  A
C3393     Br3400   1.934       .  S
C3394      C3395   1.401       .  A
C3395      C3396   1.393   1_455  A
C3395     Br3402   1.929       .  S
C3396      C3397   1.400       .  A
C3396     Br3401   1.928       .  S
C3397      C3398   1.406       .  A
C3398     Br3399   1.935       .  S
C3403      C3404   1.414       .  A
C3403      C3408   1.418       .  A
C3403     Br3410   1.924       .  S
C3404      C3405   1.413       .  A
C3405      C3406   1.412       .  A
C3405     Br3412   1.930       .  S
C3406      C3407   1.408       .  A
C3406     Br3411   1.926       .  S
C3407      C3408   1.412       .  A
C3408     Br3409   1.927       .  S
C3413      C3414   1.415       .  A
C3413      C3418   1.392   1_455  A
C3413     Br3420   1.941       .  S
C3414      C3415   1.412       .  A
C3415      C3416   1.385   1_455  A
C3415     Br3422   1.917       .  S
C3416      C3417   1.393       .  A
C3416     Br3421   1.940       .  S
C3417      C3418   1.407       .  A
C3418     Br3419   1.937       .  S
C3423      C3424   1.411       .  A
C3423      C3428   1.415       .  A
C3423     Br3430   1.926       .  S
C3424      C3425   1.414       .  A
C3425      C3426   1.418       .  A
C3425     Br3432   1.923       .  S
C3426      C3427   1.412       .  A
C3426     Br3431   1.926       .  S
C3427      C3428   1.410       .  A
C3428     Br3429   1.925       .  S
C3433      C3434   1.413       .  A
C3433      C3438   1.413       .  A
C3433     Br3440   1.931       .  S
C3434      C3435   1.414       .  A
C3435      C3436   1.420       .  A
C3435     Br3442   1.926       .  S
C3436      C3437   1.415       .  A
C3436     Br3441   1.928       .  S
C3437      C3438   1.412       .  A
C3438     Br3439   1.931       .  S
C3443      C3444   1.404       .  A
C3443      C3448   1.386       .  A
C3443     Br3450   1.936       .  S
C3444      C3445   1.404       .  A
C3445      C3446   1.391       .  A
C3445     Br3452   1.931       .  S
C3446      C3447   1.400       .  A
C3446     Br3451   1.929       .  S
C3447      C3448   1.405       .  A
C3448     Br3449   1.936       .  S
C3453      C3454   1.407       .  A
C3453      C3458   1.392       .  A
C3453     Br3460   1.932       .  S
C3454      C3455   1.413       .  A
C3455      C3456   1.388       .  A
C3455     Br3462   1.940       .  S
C3456      C3457   1.407       .  A
C3456     Br3461   1.938       .  S
C3457      C3458   1.402       .  A
C3458     Br3459   1.930       .  S
C3463      C3464   1.397       .  A
C3463      C3468   1.389       .  A
C3463     Br3470   1.936       .  S
C3464      C3465   1.411       .  A
C3465      C3466   1.386       .  A
C3465     Br3472   1.939       .  S
C3466      C3467   1.402       .  A
C3466     Br3471   1.925       .  S
C3467      C3468   1.411       .  A
C3468     Br3469   1.923       .  S
C3473      C3474   1.401       .  A
C3473      C3478   1.392       .  A
C3473     Br3480   1.930       .  S
C3474      C3475   1.404       .  A
C3475      C3476   1.384       .  A
C3475     Br3482   1.934       .  S
C3476      C3477   1.401       .  A
C3476     Br3481   1.935       .  S
C3477      C3478   1.401       .  A
C3478     Br3479   1.930       .  S
C3483      C3484   1.400       .  A
C3483      C3488   1.391       .  A
C3483     Br3490   1.929       .  S
C3484      C3485   1.403       .  A
C3485      C3486   1.385       .  A
C3485     Br3492   1.933       .  S
C3486      C3487   1.402       .  A
C3486     Br3491   1.935       .  S
C3487      C3488   1.401       .  A
C3488     Br3489   1.928       .  S
C3493      C3494   1.389       .  A
C3493      C3498   1.382       .  A
C3493     Br3500   1.935       .  S
C3494      C3495   1.410       .  A
C3495      C3496   1.379       .  A
C3495     Br3502   1.935       .  S
C3496      C3497   1.396       .  A
C3496     Br3501   1.934       .  S
C3497      C3498   1.421       .  A
C3498     Br3499   1.941       .  S
C3503      C3504   1.399       .  A
C3503      C3508   1.378       .  A
C3503     Br3510   1.940       .  S
C3504      C3505   1.430       .  A
C3505      C3506   1.385       .  A
C3505     Br3512   1.941       .  S
C3506      C3507   1.386       .  A
C3506     Br3511   1.936       .  S
C3507      C3508   1.408       .  A
C3508     Br3509   1.940       .  S
C3513      C3514   1.419       .  A
C3513      C3518   1.410       .  A
C3513     Br3520   1.931       .  S
C3514      C3515   1.417       .  A
C3515      C3516   1.422       .  A
C3515     Br3522   1.925       .  S
C3516      C3517   1.410       .  A
C3516     Br3521   1.925       .  S
C3517      C3518   1.412       .  A
C3518     Br3519   1.937       .  S
C3523      C3524   1.405       .  A
C3523      C3528   1.384       .  A
C3523     Br3530   1.935       .  S
C3524      C3525   1.400       .  A
C3525      C3526   1.391       .  A
C3525     Br3532   1.930       .  S
C3526      C3527   1.402       .  A
C3526     Br3531   1.928       .  S
C3527      C3528   1.402       .  A
C3528     Br3529   1.936       .  S
C3533      C3534   1.422       .  A
C3533      C3538   1.387       .  A
C3533     Br3540   1.946       .  S
C3534      C3535   1.412       .  A
C3535      C3536   1.383       .  A
C3535     Br3542   1.926       .  S
C3536      C3537   1.394       .  A
C3536     Br3541   1.936       .  S
C3537      C3538   1.414       .  A
C3538     Br3539   1.948       .  S
C3543      C3544   1.410       .  A
C3543      C3548   1.382       .  A
C3543     Br3550   1.932       .  S
C3544      C3545   1.423       .  A
C3545      C3546   1.384       .  A
C3545     Br3552   1.944       .  S
C3546      C3547   1.409       .  A
C3546     Br3551   1.945       .  S
C3547      C3548   1.392       .  A
C3548     Br3549   1.921       .  S
C3553      C3554   1.413       .  A
C3553      C3558   1.417       .  A
C3553     Br3560   1.928       .  S
C3554      C3555   1.413       .  A
C3555      C3556   1.419       .  A
C3555     Br3562   1.924       .  S
C3556      C3557   1.411       .  A
C3556     Br3561   1.927       .  S
C3557      C3558   1.412       .  A
C3558     Br3559   1.923       .  S
C3563      C3564   1.415       .  A
C3563      C3568   1.420       .  A
C3563     Br3570   1.927       .  S
C3564      C3565   1.413       .  A
C3565      C3566   1.412       .  A
C3565     Br3572   1.931       .  S
C3566      C3567   1.412       .  A
C3566     Br3571   1.933       .  S
C3567      C3568   1.415       .  A
C3568     Br3569   1.929       .  S
C3573      C3574   1.404       .  A
C3573      C3578   1.387   1_556  A
C3573     Br3580   1.934       .  S
C3574      C3575   1.402       .  A
C3575      C3576   1.393   1_556  A
C3575     Br3582   1.931       .  S
C3576      C3577   1.404       .  A
C3576     Br3581   1.931       .  S
C3577      C3578   1.405       .  A
C3578     Br3579   1.935       .  S
C3583      C3584   1.401       .  A
C3583      C3588   1.392   1_554  A
C3583     Br3590   1.930       .  S
C3584      C3585   1.403       .  A
C3585      C3586   1.387   1_554  A
C3585     Br3592   1.934       .  S
C3586      C3587   1.403       .  A
C3586     Br3591   1.934       .  S
C3587      C3588   1.401       .  A
C3588     Br3589   1.929       .  S
C3593      C3594   1.415       .  A
C3593      C3598   1.420       .  A
C3593     Br3600   1.927       .  S
C3594      C3595   1.410       .  A
C3595      C3596   1.414       .  A
C3595     Br3602   1.925       .  S
C3596      C3597   1.410       .  A
C3596     Br3601   1.925       .  S
C3597      C3598   1.413       .  A
C3598     Br3599   1.925       .  S
C3603      C3604   1.412       .  A
C3603      C3608   1.418       .  A
C3603     Br3610   1.927       .  S
C3604      C3605   1.412       .  A
C3605      C3606   1.409       .  A
C3605     Br3612   1.931       .  S
C3606      C3607   1.412       .  A
C3606     Br3611   1.930       .  S
C3607      C3608   1.412       .  A
C3608     Br3609   1.927       .  S
C3613      C3614   1.414       .  A
C3613      C3618   1.420       .  A
C3613     Br3620   1.927       .  S
C3614      C3615   1.412       .  A
C3615      C3616   1.411       .  A
C3615     Br3622   1.930       .  S
C3616      C3617   1.407       .  A
C3616     Br3621   1.922       .  S
C3617      C3618   1.415       .  A
C3618     Br3619   1.925       .  S
C3623      C3624   1.411       .  A
C3623      C3628   1.396       .  A
C3623     Br3630   1.935       .  S
C3624      C3625   1.400       .  A
C3625      C3626   1.389       .  A
C3625     Br3632   1.935       .  S
C3626      C3627   1.403       .  A
C3626     Br3631   1.915       .  S
C3627      C3628   1.407       .  A
C3628     Br3629   1.934       .  S
C3633      C3634   1.405       .  A
C3633      C3638   1.391       .  A
C3633     Br3640   1.926       .  S
C3634      C3635   1.419       .  A
C3635      C3636   1.395       .  A
C3635     Br3642   1.937       .  S
C3636      C3637   1.400       .  A
C3636     Br3641   1.929       .  S
C3637      C3638   1.400       .  A
C3638     Br3639   1.925       .  S
C3643      C3644   1.401       .  A
C3643      C3648   1.379       .  A
C3643     Br3650   1.930       .  S
C3644      C3645   1.429       .  A
C3645      C3646   1.388       .  A
C3645     Br3652   1.939       .  S
C3646      C3647   1.389       .  A
C3646     Br3651   1.939       .  S
C3647      C3648   1.406       .  A
C3648     Br3649   1.940       .  S
C3653      C3654   1.400       .  A
C3653      C3658   1.382       .  A
C3653     Br3660   1.938       .  S
C3654      C3655   1.431       .  A
C3655      C3656   1.383       .  A
C3655     Br3662   1.944       .  S
C3656      C3657   1.385       .  A
C3656     Br3661   1.937       .  S
C3657      C3658   1.409       .  A
C3658     Br3659   1.938       .  S
C3663      C3664   1.408       .  A
C3663      C3668   1.378       .  A
C3663     Br3670   1.937       .  S
C3664      C3665   1.383       .  A
C3665      C3666   1.383       .  A
C3665     Br3672   1.939       .  S
C3666      C3667   1.436       .  A
C3666     Br3671   1.942       .  S
C3667      C3668   1.398       .  A
C3668     Br3669   1.931       .  S
C3673      C3674   1.411       .  A
C3673      C3678   1.410       .  A
C3673     Br3680   1.932       .  S
C3674      C3675   1.417       .  A
C3675      C3676   1.419       .  A
C3675     Br3682   1.927       .  S
C3676      C3677   1.413       .  A
C3676     Br3681   1.929       .  S
C3677      C3678   1.410       .  A
C3678     Br3679   1.926       .  S
C3683      C3684   1.403       .  A
C3683      C3688   1.394       .  A
C3683     Br3690   1.930       .  S
C3684      C3685   1.403       .  A
C3685      C3686   1.387       .  A
C3685     Br3692   1.935       .  S
C3686      C3687   1.405       .  A
C3686     Br3691   1.935       .  S
C3687      C3688   1.401       .  A
C3688     Br3689   1.930       .  S
C3693      C3694   1.408       .  A
C3693      C3698   1.395       .  A
C3693     Br3700   1.932       .  S
C3694      C3695   1.401       .  A
C3695      C3696   1.387       .  A
C3695     Br3702   1.926       .  S
C3696      C3697   1.392       .  A
C3696     Br3701   1.923       .  S
C3697      C3698   1.412       .  A
C3698     Br3699   1.933       .  S
C3703      C3704   1.389       .  A
C3703      C3708   1.388       .  A
C3703     Br3710   1.938       .  S
C3704      C3705   1.408       .  A
C3705      C3706   1.376       .  A
C3705     Br3712   1.937       .  S
C3706      C3707   1.394       .  A
C3706     Br3711   1.927       .  S
C3707      C3708   1.428       .  A
C3708     Br3709   1.939       .  S
C3713      C3714   1.408       .  A
C3713      C3718   1.413       .  A
C3713     Br3720   1.924       .  S
C3714      C3715   1.415       .  A
C3715      C3716   1.420       .  A
C3715     Br3722   1.925       .  S
C3716      C3717   1.413       .  A
C3716     Br3721   1.926       .  S
C3717      C3718   1.414       .  A
C3718     Br3719   1.931       .  S
C3723      C3724   1.413       .  A
C3723      C3728   1.412       .  A
C3723     Br3730   1.930       .  S
C3724      C3725   1.412       .  A
C3725      C3726   1.419       .  A
C3725     Br3732   1.926       .  S
C3726      C3727   1.411       .  A
C3726     Br3731   1.926       .  S
C3727      C3728   1.412       .  A
C3728     Br3729   1.932       .  S
C3733      C3734   1.400       .  A
C3733      C3738   1.391   1_556  A
C3733     Br3740   1.930       .  S
C3734      C3735   1.403       .  A
C3735      C3736   1.388   1_556  A
C3735     Br3742   1.935       .  S
C3736      C3737   1.404       .  A
C3736     Br3741   1.934       .  S
C3737      C3738   1.400       .  A
C3738     Br3739   1.928       .  S
C3743      C3744   1.401       .  A
C3743      C3748   1.385   1_554  A
C3743     Br3750   1.935       .  S
C3744      C3745   1.401       .  A
C3745      C3746   1.391   1_554  A
C3745     Br3752   1.930       .  S
C3746      C3747   1.400       .  A
C3746     Br3751   1.930       .  S
C3747      C3748   1.405       .  A
C3748     Br3749   1.936       .  S
C3753      C3754   1.408       .  A
C3753      C3758   1.395   1_655  A
C3753     Br3760   1.936       .  S
C3754      C3755   1.404       .  A
C3755      C3756   1.390   1_655  A
C3755     Br3762   1.923       .  S
C3756      C3757   1.400       .  A
C3756     Br3761   1.932       .  S
C3757      C3758   1.410       .  A
C3758     Br3759   1.935       .  S
C3763      C3764   1.412       .  A
C3763      C3768   1.414       .  A
C3763     Br3770   1.926       .  S
C3764      C3765   1.414       .  A
C3765      C3766   1.422       .  A
C3765     Br3772   1.926       .  S
C3766      C3767   1.416       .  A
C3766     Br3771   1.923       .  S
C3767      C3768   1.410       .  A
C3768     Br3769   1.924       .  S
C3773      C3774   1.400       .  A
C3773      C3778   1.391   1_655  A
C3773     Br3780   1.918       .  S
C3774      C3775   1.404       .  A
C3775      C3776   1.393   1_655  A
C3775     Br3782   1.933       .  S
C3776      C3777   1.406       .  A
C3776     Br3781   1.933       .  S
C3777      C3778   1.400       .  A
C3778     Br3779   1.932       .  S
C3783      C3784   1.409       .  A
C3783      C3788   1.426       .  A
C3783     Br3790   1.931       .  S
C3784      C3785   1.408       .  A
C3785      C3786   1.425       .  A
C3785     Br3792   1.923       .  S
C3786      C3787   1.432       .  A
C3786     Br3791   1.934       .  S
C3787      C3788   1.434       .  A
C3788     Br3789   1.933       .  S
C3793      C3794   1.411       .  A
C3793      C3798   1.409       .  A
C3793     Br3800   1.930       .  S
C3794      C3795   1.410       .  A
C3795      C3796   1.415       .  A
C3795     Br3802   1.927       .  S
C3796      C3797   1.410       .  A
C3796     Br3801   1.927       .  S
C3797      C3798   1.411       .  A
C3798     Br3799   1.929       .  S
C3803      C3804   1.411       .  A
C3803      C3808   1.413       .  A
C3803     Br3810   1.931       .  S
C3804      C3805   1.414       .  A
C3805      C3806   1.421       .  A
C3805     Br3812   1.927       .  S
C3806      C3807   1.415       .  A
C3806     Br3811   1.923       .  S
C3807      C3808   1.411       .  A
C3808     Br3809   1.923       .  S
C3813      C3814   1.399       .  A
C3813      C3818   1.388       .  A
C3813     Br3820   1.931       .  S
C3814      C3815   1.403       .  A
C3815      C3816   1.388       .  A
C3815     Br3822   1.935       .  S
C3816      C3817   1.405       .  A
C3816     Br3821   1.936       .  S
C3817      C3818   1.400       .  A
C3818     Br3819   1.925       .  S
C3823      C3824   1.402       .  A
C3823      C3828   1.380       .  A
C3823     Br3830   1.937       .  S
C3824      C3825   1.431       .  A
C3825      C3826   1.382       .  A
C3825     Br3832   1.943       .  S
C3826      C3827   1.385       .  A
C3826     Br3831   1.934       .  S
C3827      C3828   1.407       .  A
C3828     Br3829   1.935       .  S
C3833      C3834   1.402       .  A
C3833      C3838   1.378       .  A
C3833     Br3840   1.940       .  S
C3834      C3835   1.387       .  A
C3835      C3836   1.386       .  A
C3835     Br3842   1.937       .  S
C3836      C3837   1.427       .  A
C3836     Br3841   1.937       .  S
C3837      C3838   1.406       .  A
C3838     Br3839   1.932       .  S
C3843      C3844   1.399       .  A
C3843      C3848   1.389       .  A
C3843     Br3850   1.931       .  S
C3844      C3845   1.404       .  A
C3845      C3846   1.382       .  A
C3845     Br3852   1.936       .  S
C3846      C3847   1.400       .  A
C3846     Br3851   1.935       .  S
C3847      C3848   1.403       .  A
C3848     Br3849   1.932       .  S
C3853      C3854   1.407       .  A
C3853      C3858   1.381       .  A
C3853     Br3860   1.938       .  S
C3854      C3855   1.387       .  A
C3855      C3856   1.380       .  A
C3855     Br3862   1.934       .  S
C3856      C3857   1.425       .  A
C3856     Br3861   1.942       .  S
C3857      C3858   1.401       .  A
C3858     Br3859   1.938       .  S
C3863      C3864   1.421       .  A
C3863      C3868   1.395       .  A
C3863     Br3870   1.939       .  S
C3864      C3865   1.400       .  A
C3865      C3866   1.383       .  A
C3865     Br3872   1.928       .  S
C3866      C3867   1.401       .  A
C3866     Br3871   1.920       .  S
C3867      C3868   1.405       .  A
C3868     Br3869   1.936       .  S
C3873      C3874   1.412       .  A
C3873      C3878   1.415       .  A
C3873     Br3880   1.928       .  S
C3874      C3875   1.408       .  A
C3875      C3876   1.410       .  A
C3875     Br3882   1.923       .  S
C3876      C3877   1.409       .  A
C3876     Br3881   1.928       .  S
C3877      C3878   1.412       .  A
C3878     Br3879   1.922       .  S
C3883      C3884   1.401       .  A
C3883      C3888   1.393       .  A
C3883     Br3890   1.929       .  S
C3884      C3885   1.404       .  A
C3885      C3886   1.388       .  A
C3885     Br3892   1.935       .  S
C3886      C3887   1.404       .  A
C3886     Br3891   1.934       .  S
C3887      C3888   1.402       .  A
C3888     Br3889   1.929       .  S
C3893      C3894   1.401       .  A
C3893      C3898   1.392       .  A
C3893     Br3900   1.927       .  S
C3894      C3895   1.401       .  A
C3895      C3896   1.390       .  A
C3895     Br3902   1.933       .  S
C3896      C3897   1.406       .  A
C3896     Br3901   1.933       .  S
C3897      C3898   1.401       .  A
C3898     Br3899   1.930       .  S
C3903      C3904   1.412       .  A
C3903      C3908   1.379       .  A
C3903     Br3910   1.939       .  S
C3904      C3905   1.390       .  A
C3905      C3906   1.381       .  A
C3905     Br3912   1.931       .  S
C3906      C3907   1.417       .  A
C3906     Br3911   1.933       .  S
C3907      C3908   1.392       .  A
C3908     Br3909   1.929       .  S
C3913      C3914   1.407       .  A
C3913      C3918   1.393       .  A
C3913     Br3920   1.933       .  S
C3914      C3915   1.400       .  A
C3915      C3916   1.384       .  A
C3915     Br3922   1.922       .  S
C3916      C3917   1.400       .  A
C3916     Br3921   1.927       .  S
C3917      C3918   1.416       .  A
C3918     Br3919   1.938       .  S
C3923      C3924   1.410       .  A
C3923      C3928   1.429       .  A
C3923     Br3930   1.928       .  S
C3924      C3925   1.407       .  A
C3925      C3926   1.426       .  A
C3925     Br3932   1.932       .  S
C3926      C3927   1.437       .  A
C3926     Br3931   1.927       .  S
C3927      C3928   1.436       .  A
C3928     Br3929   1.933       .  S
C3933      C3934   1.410       .  A
C3933      C3938   1.415       .  A
C3933     Br3940   1.925       .  S
C3934      C3935   1.412       .  A
C3935      C3936   1.417       .  A
C3935     Br3942   1.924       .  S
C3936      C3937   1.412       .  A
C3936     Br3941   1.921       .  S
C3937      C3938   1.411       .  A
C3938     Br3939   1.927       .  S
C3943      C3944   1.411       .  A
C3943      C3948   1.411       .  A
C3943     Br3950   1.930       .  S
C3944      C3945   1.413       .  A
C3945      C3946   1.419       .  A
C3945     Br3952   1.924       .  S
C3946      C3947   1.414       .  A
C3946     Br3951   1.927       .  S
C3947      C3948   1.412       .  A
C3948     Br3949   1.932       .  S
C3953      C3954   1.404       .  A
C3953      C3958   1.394   1_554  A
C3953     Br3960   1.931       .  S
C3954      C3955   1.405       .  A
C3955      C3956   1.393   1_554  A
C3955     Br3962   1.936       .  S
C3956      C3957   1.409       .  A
C3956     Br3961   1.935       .  S
C3957      C3958   1.401       .  A
C3958     Br3959   1.928       .  S
C3963      C3964   1.401       .  A
C3963      C3968   1.390   1_545  A
C3963     Br3970   1.930       .  S
C3964      C3965   1.399       .  A
C3965      C3966   1.386   1_545  A
C3965     Br3972   1.934       .  S
C3966      C3967   1.406       .  A
C3966     Br3971   1.934       .  S
C3967      C3968   1.399       .  A
C3968     Br3969   1.929       .  S
C3973      C3974   1.395       .  A
C3973      C3978   1.385   1_545  A
C3973     Br3980   1.929       .  S
C3974      C3975   1.406       .  A
C3975      C3976   1.397   1_545  A
C3975     Br3982   1.933       .  S
C3976      C3977   1.416       .  A
C3976     Br3981   1.936       .  S
C3977      C3978   1.411       .  A
C3978     Br3979   1.927       .  S
C3983      C3984   1.415       .  A
C3983      C3988   1.420       .  A
C3983     Br3990   1.926       .  S
C3984      C3985   1.411       .  A
C3985      C3986   1.412       .  A
C3985     Br3992   1.927       .  S
C3986      C3987   1.411       .  A
C3986     Br3991   1.931       .  S
C3987      C3988   1.414       .  A
C3988     Br3989   1.927       .  S
C3993      C3994   1.406       .  A
C3993      C3998   1.384   1_556  A
C3993     Br4000   1.935       .  S
C3994      C3995   1.400       .  A
C3995      C3996   1.391   1_556  A
C3995     Br4002   1.929       .  S
C3996      C3997   1.402       .  A
C3996     Br4001   1.930       .  S
C3997      C3998   1.399       .  A
C3998     Br3999   1.935       .  S
C4003      C4004   1.413       .  A
C4003      C4008   1.418       .  A
C4003     Br4010   1.926       .  S
C4004      C4005   1.408       .  A
C4005      C4006   1.411       .  A
C4005     Br4012   1.926       .  S
C4006      C4007   1.410       .  A
C4006     Br4011   1.923       .  S
C4007      C4008   1.414       .  A
C4008     Br4009   1.926       .  S
C4013      C4014   1.412       .  A
C4013      C4018   1.419       .  A
C4013     Br4020   1.927       .  S
C4014      C4015   1.411       .  A
C4015      C4016   1.413       .  A
C4015     Br4022   1.928       .  S
C4016      C4017   1.413       .  A
C4016     Br4021   1.930       .  S
C4017      C4018   1.412       .  A
C4018     Br4019   1.925       .  S
C4023      C4024   1.409       .  A
C4023      C4028   1.392       .  A
C4023     Br4030   1.937       .  S
C4024      C4025   1.403       .  A
C4025      C4026   1.392       .  A
C4025     Br4032   1.934       .  S
C4026      C4027   1.404       .  A
C4026     Br4031   1.929       .  S
C4027      C4028   1.407       .  A
C4028     Br4029   1.937       .  S
C4033      C4034   1.426       .  A
C4033      C4038   1.380       .  A
C4033     Br4040   1.944       .  S
C4034      C4035   1.399       .  A
C4035      C4036   1.379       .  A
C4035     Br4042   1.929       .  S
C4036      C4037   1.408       .  A
C4036     Br4041   1.941       .  S
C4037      C4038   1.386       .  A
C4038     Br4039   1.934       .  S
C4043      C4044   1.390       .  A
C4043      C4048   1.383       .  A
C4043     Br4050   1.923       .  S
C4044      C4045   1.417       .  A
C4045      C4046   1.393       .  A
C4045     Br4052   1.937       .  S
C4046      C4047   1.405       .  A
C4046     Br4051   1.926       .  S
C4047      C4048   1.403       .  A
C4048     Br4049   1.926       .  S
C4053      C4054   1.400       .  A
C4053      C4058   1.387       .  A
C4053     Br4060   1.935       .  S
C4054      C4055   1.404       .  A
C4055      C4056   1.391       .  A
C4055     Br4062   1.934       .  S
C4056      C4057   1.406       .  A
C4056     Br4061   1.934       .  S
C4057      C4058   1.399       .  A
C4058     Br4059   1.918       .  S
C4063      C4064   1.403       .  A
C4063      C4068   1.392       .  A
C4063     Br4070   1.931       .  S
C4064      C4065   1.407       .  A
C4065      C4066   1.385       .  A
C4065     Br4072   1.938       .  S
C4066      C4067   1.402       .  A
C4066     Br4071   1.936       .  S
C4067      C4068   1.402       .  A
C4068     Br4069   1.931       .  S
C4073      C4074   1.398       .  A
C4073      C4078   1.392       .  A
C4073     Br4080   1.928       .  S
C4074      C4075   1.404       .  A
C4075      C4076   1.393       .  A
C4075     Br4082   1.934       .  S
C4076      C4077   1.417       .  A
C4076     Br4081   1.938       .  S
C4077      C4078   1.412       .  A
C4078     Br4079   1.934       .  S
C4083      C4084   1.423       .  A
C4083      C4088   1.378       .  A
C4083     Br4090   1.943       .  S
C4084      C4085   1.395       .  A
C4085      C4086   1.382       .  A
C4085     Br4092   1.935       .  S
C4086      C4087   1.411       .  A
C4086     Br4091   1.937       .  S
C4087      C4088   1.388       .  A
C4088     Br4089   1.933       .  S
C4093      C4094   1.414       .  A
C4093      C4098   1.419       .  A
C4093     Br4100   1.927       .  S
C4094      C4095   1.413       .  A
C4095      C4096   1.410       .  A
C4095     Br4102   1.932       .  S
C4096      C4097   1.411       .  A
C4096     Br4101   1.932       .  S
C4097      C4098   1.414       .  A
C4098     Br4099   1.927       .  S
C4103      C4104   1.406       .  A
C4103      C4108   1.386       .  A
C4103     Br4110   1.936       .  S
C4104      C4105   1.400       .  A
C4105      C4106   1.390       .  A
C4105     Br4112   1.930       .  S
C4106      C4107   1.401       .  A
C4106     Br4111   1.929       .  S
C4107      C4108   1.400       .  A
C4108     Br4109   1.935       .  S
C4113      C4114   1.397       .  A
C4113      C4118   1.389       .  A
C4113     Br4120   1.936       .  S
C4114      C4115   1.414       .  A
C4115      C4116   1.391       .  A
C4115     Br4122   1.939       .  S
C4116      C4117   1.403       .  A
C4116     Br4121   1.927       .  S
C4117      C4118   1.412       .  A
C4118     Br4119   1.922       .  S
C4123      C4124   1.420       .  A
C4123      C4128   1.378       .  A
C4123     Br4130   1.927       .  S
C4124      C4125   1.430       .  A
C4125      C4126   1.389       .  A
C4125     Br4132   1.942       .  S
C4126      C4127   1.404       .  A
C4126     Br4131   1.944       .  S
C4127      C4128   1.378       .  A
C4128     Br4129   1.925       .  S
C4133      C4134   1.414       .  A
C4133      C4138   1.419       .  A
C4133     Br4140   1.927       .  S
C4134      C4135   1.409       .  A
C4135      C4136   1.412       .  A
C4135     Br4142   1.924       .  S
C4136      C4137   1.411       .  A
C4136     Br4141   1.930       .  S
C4137      C4138   1.413       .  A
C4138     Br4139   1.925       .  S
C4143      C4144   1.412       .  A
C4143      C4148   1.416       .  A
C4143     Br4150   1.929       .  S
C4144      C4145   1.415       .  A
C4145      C4146   1.421       .  A
C4145     Br4152   1.925       .  S
C4146      C4147   1.413       .  A
C4146     Br4151   1.926       .  S
C4147      C4148   1.410       .  A
C4148     Br4149   1.923       .  S
C4153      C4154   1.404       .  A
C4153      C4158   1.389   1_556  A
C4153     Br4160   1.935       .  S
C4154      C4155   1.401       .  A
C4155      C4156   1.394   1_556  A
C4155     Br4162   1.928       .  S
C4156      C4157   1.401       .  A
C4156     Br4161   1.929       .  S
C4157      C4158   1.404       .  A
C4158     Br4159   1.934       .  S
C4163      C4164   1.399       .  A
C4163      C4168   1.389   1_655  A
C4163     Br4170   1.927       .  S
C4164      C4165   1.402       .  A
C4165      C4166   1.389   1_655  A
C4165     Br4172   1.933       .  S
C4166      C4167   1.404       .  A
C4166     Br4171   1.932       .  S
C4167      C4168   1.400       .  A
C4168     Br4169   1.930       .  S
C4173      C4174   1.410       .  A
C4173      C4178   1.390   1_556  A
C4173     Br4180   1.935       .  S
C4174      C4175   1.402       .  A
C4175      C4176   1.390   1_556  A
C4175     Br4182   1.930       .  S
C4176      C4177   1.400       .  A
C4176     Br4181   1.931       .  S
C4177      C4178   1.401       .  A
C4178     Br4179   1.935       .  S
C4183      C4184   1.402       .  A
C4183      C4188   1.392   1_545  A
C4183     Br4190   1.932       .  S
C4184      C4185   1.402       .  A
C4185      C4186   1.389   1_545  A
C4185     Br4192   1.934       .  S
C4186      C4187   1.406       .  A
C4186     Br4191   1.935       .  S
C4187      C4188   1.402       .  A
C4188     Br4189   1.930       .  S
C4193      C4194   1.413       .  A
C4193      C4198   1.413       .  A
C4193     Br4200   1.926       .  S
C4194      C4195   1.417       .  A
C4195      C4196   1.422       .  A
C4195     Br4202   1.926       .  S
C4196      C4197   1.415       .  A
C4196     Br4201   1.929       .  S
C4197      C4198   1.411       .  A
C4198     Br4199   1.928       .  S
C4203      C4204   1.407       .  A
C4203      C4208   1.384   1_655  A
C4203     Br4210   1.936       .  S
C4204      C4205   1.399       .  A
C4205      C4206   1.390   1_655  A
C4205     Br4212   1.929       .  S
C4206      C4207   1.401       .  A
C4206     Br4211   1.929       .  S
C4207      C4208   1.398       .  A
C4208     Br4209   1.935       .  S
C4213      C4214   1.403       .  A
C4213      C4218   1.394   1_545  A
C4213     Br4220   1.932       .  S
C4214      C4215   1.402       .  A
C4215      C4216   1.392   1_545  A
C4215     Br4222   1.932       .  S
C4216      C4217   1.401       .  A
C4216     Br4221   1.923       .  S
C4217      C4218   1.406       .  A
C4218     Br4219   1.932       .  S
C4223      C4224   1.408       .  A
C4223      C4228   1.424       .  A
C4223     Br4230   1.928       .  S
C4224      C4225   1.425       .  A
C4225      C4226   1.419       .  A
C4225     Br4232   1.938       .  S
C4226      C4227   1.414       .  A
C4226     Br4231   1.922       .  S
C4227      C4228   1.421       .  A
C4228     Br4229   1.894   1_545  S
C4233      C4234   1.410       .  A
C4233      C4238   1.415       .  A
C4233     Br4240   1.929       .  S
C4234      C4235   1.414       .  A
C4235      C4236   1.423       .  A
C4235     Br4242   1.928       .  S
C4236      C4237   1.417       .  A
C4236     Br4241   1.924       .  S
C4237      C4238   1.413       .  A
C4238     Br4239   1.923       .  S
C4243      C4244   1.416       .  A
C4243      C4248   1.414       .  A
C4243     Br4250   1.936       .  S
C4244      C4245   1.412       .  A
C4245      C4246   1.422       .  A
C4245     Br4252   1.927       .  S
C4246      C4247   1.418       .  A
C4246     Br4251   1.927       .  S
C4247      C4248   1.417       .  A
C4248     Br4249   1.935       .  S
C4253      C4254   1.403       .  A
C4253      C4258   1.393       .  A
C4253     Br4260   1.928       .  S
C4254      C4255   1.409       .  A
C4255      C4256   1.388       .  A
C4255     Br4262   1.936       .  S
C4256      C4257   1.402       .  A
C4256     Br4261   1.935       .  S
C4257      C4258   1.402       .  A
C4258     Br4259   1.931       .  S
C4263      C4264   1.404       .  A
C4263      C4268   1.384       .  A
C4263     Br4270   1.920       .  S
C4264      C4265   1.406       .  A
C4265      C4266   1.392       .  A
C4265     Br4272   1.934       .  S
C4266      C4267   1.405       .  A
C4266     Br4271   1.933       .  S
C4267      C4268   1.398       .  A
C4268     Br4269   1.935       .  S
C4273      C4274   1.412       .  A
C4273      C4278   1.378       .  A
C4273     Br4280   1.931       .  S
C4274      C4275   1.383       .  A
C4275      C4276   1.386       .  A
C4275     Br4282   1.938       .  S
C4276      C4277   1.439       .  A
C4276     Br4281   1.944       .  S
C4277      C4278   1.396       .  A
C4278     Br4279   1.938       .  S
C4283      C4284   1.415       .  A
C4283      C4288   1.383       .  A
C4283     Br4290   1.935       .  S
C4284      C4285   1.389       .  A
C4285      C4286   1.373       .  A
C4285     Br4292   1.933       .  S
C4286      C4287   1.411       .  A
C4286     Br4291   1.937       .  S
C4287      C4288   1.397       .  A
C4288     Br4289   1.939       .  S
C4293      C4294   1.424       .  A
C4293      C4298   1.426       .  A
C4293     Br4300   1.927       .  S
C4294      C4295   1.420       .  A
C4295      C4296   1.424       .  A
C4295     Br4302   1.921       .  S
C4296      C4297   1.416       .  A
C4296     Br4301   1.923       .  S
C4297      C4298   1.414       .  A
C4298     Br4299   1.931       .  S
C4303      C4304   1.406       .  A
C4303      C4308   1.385       .  A
C4303     Br4310   1.936       .  S
C4304      C4305   1.402       .  A
C4305      C4306   1.391       .  A
C4305     Br4312   1.927       .  S
C4306      C4307   1.400       .  A
C4306     Br4311   1.930       .  S
C4307      C4308   1.402       .  A
C4308     Br4309   1.936       .  S
C4313      C4314   1.401       .  A
C4313      C4318   1.385       .  A
C4313     Br4320   1.933       .  S
C4314      C4315   1.401       .  A
C4315      C4316   1.391       .  A
C4315     Br4322   1.931       .  S
C4316      C4317   1.400       .  A
C4316     Br4321   1.930       .  S
C4317      C4318   1.403       .  A
C4318     Br4319   1.935       .  S
C4323      C4324   1.397       .  A
C4323      C4328   1.374       .  A
C4323     Br4330   1.933       .  S
C4324      C4325   1.424       .  A
C4325      C4326   1.379       .  A
C4325     Br4332   1.937       .  S
C4326      C4327   1.385       .  A
C4326     Br4331   1.936       .  S
C4327      C4328   1.406       .  A
C4328     Br4329   1.937       .  S
C4333      C4334   1.398       .  A
C4333      C4338   1.379       .  A
C4333     Br4340   1.938       .  S
C4334      C4335   1.422       .  A
C4335      C4336   1.379       .  A
C4335     Br4342   1.938       .  S
C4336      C4337   1.386       .  A
C4336     Br4341   1.935       .  S
C4337      C4338   1.408       .  A
C4338     Br4339   1.935       .  S
C4343      C4344   1.414       .  A
C4343      C4348   1.413       .  A
C4343     Br4350   1.933       .  S
C4344      C4345   1.411       .  A
C4345      C4346   1.418       .  A
C4345     Br4352   1.925       .  S
C4346      C4347   1.412       .  A
C4346     Br4351   1.924       .  S
C4347      C4348   1.413       .  A
C4348     Br4349   1.929       .  S
C4353      C4354   1.402       .  A
C4353      C4358   1.392       .  A
C4353     Br4360   1.930       .  S
C4354      C4355   1.405       .  A
C4355      C4356   1.390       .  A
C4355     Br4362   1.934       .  S
C4356      C4357   1.403       .  A
C4356     Br4361   1.933       .  S
C4357      C4358   1.399       .  A
C4358     Br4359   1.928       .  S
C4363      C4364   1.397       .  A
C4363      C4368   1.389       .  A
C4363     Br4370   1.934       .  S
C4364      C4365   1.406       .  A
C4365      C4366   1.398       .  A
C4365     Br4372   1.934       .  S
C4366      C4367   1.416       .  A
C4366     Br4371   1.937       .  S
C4367      C4368   1.413       .  A
C4368     Br4369   1.921       .  S
C4373      C4374   1.390       .  A
C4373      C4378   1.385       .  A
C4373     Br4380   1.937       .  S
C4374      C4375   1.422       .  A
C4375      C4376   1.381       .  A
C4375     Br4382   1.938       .  S
C4376      C4377   1.390       .  A
C4376     Br4381   1.941       .  S
C4377      C4378   1.425       .  A
C4378     Br4379   1.941       .  S
C4383      C4384   1.389       .  A
C4383      C4388   1.389       .  A
C4383     Br4390   1.935       .  S
C4384      C4385   1.403       .  A
C4385      C4386   1.378       .  A
C4385     Br4392   1.928       .  S
C4386      C4387   1.399       .  A
C4386     Br4391   1.936       .  S
C4387      C4388   1.428       .  A
C4388     Br4389   1.936       .  S
C4393      C4394   1.414       .  A
C4393      C4398   1.422       .  A
C4393     Br4400   1.925       .  S
C4394      C4395   1.410       .  A
C4395      C4396   1.414       .  A
C4395     Br4402   1.926       .  S
C4396      C4397   1.411       .  A
C4396     Br4401   1.924       .  S
C4397      C4398   1.416       .  A
C4398     Br4399   1.926       .  S
C4403      C4404   1.410       .  A
C4403      C4408   1.413       .  A
C4403     Br4410   1.930       .  S
C4404      C4405   1.417       .  A
C4405      C4406   1.421       .  A
C4405     Br4412   1.926       .  S
C4406      C4407   1.413       .  A
C4406     Br4411   1.927       .  S
C4407      C4408   1.415       .  A
C4408     Br4409   1.931       .  S
C4413      C4414   1.417       .  A
C4413      C4418   1.425       .  A
C4413     Br4420   1.930       .  S
C4414      C4415   1.433       .  A
C4415      C4416   1.434       .  A
C4415     Br4422   1.932       .  S
C4416      C4417   1.418       .  A
C4416     Br4421   1.932       .  S
C4417      C4418   1.416       .  A
C4418     Br4419   1.890       .  S
C4423      C4424   1.419       .  A
C4423      C4428   1.424       .  A
C4423     Br4430   1.924       .  S
C4424      C4425   1.429       .  A
C4425      C4426   1.434       .  A
C4425     Br4432   1.929       .  S
C4426      C4427   1.416       .  A
C4426     Br4431   1.926       .  S
C4427      C4428   1.419       .  A
C4428     Br4429   1.928       .  S
C4433      C4434   1.431       .  A
C4433      C4438   1.427       .  A
C4433     Br4440   1.931       .  S
C4434      C4435   1.432       .  A
C4435      C4436   1.429       .  A
C4435     Br4442   1.933       .  S
C4436      C4437   1.415       .  A
C4436     Br4441   1.928       .  S
C4437      C4438   1.411       .  A
C4438     Br4439   1.931       .  S
C4443      C4444   1.431       .  A
C4443      C4448   1.425       .  A
C4443     Br4450   1.931       .  S
C4444      C4445   1.436       .  A
C4445      C4446   1.427       .  A
C4445     Br4452   1.936       .  S
C4446      C4447   1.409       .  A
C4446     Br4451   1.934       .  S
C4447      C4448   1.410       .  A
C4448     Br4449   1.933       .  S
C4453      C4454   1.411       .  A
C4453      C4458   1.430       .  A
C4453     Br4460   1.930       .  S
C4454      C4455   1.415       .  A
C4455      C4456   1.430       .  A
C4455     Br4462   1.931       .  S
C4456      C4457   1.431       .  A
C4456     Br4461   1.932       .  S
C4457      C4458   1.434       .  A
C4458     Br4459   1.932       .  S
C4463      C4464   1.411       .  A
C4463      C4468   1.430       .  A
C4463     Br4470   1.933       .  S
C4464      C4465   1.413       .  A
C4465      C4466   1.434       .  A
C4465     Br4472   1.929       .  S
C4466      C4467   1.431       .  A
C4466     Br4471   1.922       .  S
C4467      C4468   1.434       .  A
C4468     Br4469   1.925       .  S
C4473      C4474   1.413       .  A
C4473      C4478   1.428       .  A
C4473     Br4480   1.931       .  S
C4474      C4475   1.408       .  A
C4475      C4476   1.426       .  A
C4475     Br4482   1.933       .  S
C4476      C4477   1.436       .  A
C4476     Br4481   1.936       .  S
C4477      C4478   1.428       .  A
C4478     Br4479   1.928       .  S
C4483      C4484   1.422       .  A
C4483      C4488   1.435       .  A
C4483     Br4490   1.920       .  S
C4484      C4485   1.417       .  A
C4485      C4486   1.423       .  A
C4485     Br4492   1.928       .  S
C4486      C4487   1.420       .  A
C4486     Br4491   1.933       .  S
C4487      C4488   1.419       .  A
C4488     Br4489   1.923       .  S
C4493      C4494   1.418       .  A
C4493      C4498   1.431       .  A
C4493     Br4500   1.922       .  S
C4494      C4495   1.420       .  A
C4495      C4496   1.426       .  A
C4495     Br4502   1.931       .  S
C4496      C4497   1.422       .  A
C4496     Br4501   1.933       .  S
C4497      C4498   1.421       .  A
C4498     Br4499   1.921       .  S
C4503      C4504   1.431       .  A
C4503      C4508   1.429       .  A
C4503     Br4510   1.931       .  S
C4504      C4505   1.438       .  A
C4505      C4506   1.428       .  A
C4505     Br4512   1.929       .  S
C4506      C4507   1.408       .  A
C4506     Br4511   1.933       .  S
C4507      C4508   1.415       .  A
C4508     Br4509   1.928       .  S
C4513      C4514   1.420       .  A
C4513      C4518   1.421       .  A
C4513     Br4520   1.933       .  S
C4514      C4515   1.426       .  A
C4515      C4516   1.431       .  A
C4515     Br4522   1.930       .  S
C4516      C4517   1.416       .  A
C4516     Br4521   1.927       .  S
C4517      C4518   1.421       .  A
C4518     Br4519   1.931       .  S
C4523      C4524   1.418       .  A
C4523      C4528   1.420       .  A
C4523     Br4530   1.933       .  S
C4524      C4525   1.417       .  A
C4525      C4526   1.432       .  A
C4525     Br4532   1.920       .  S
C4526      C4527   1.423       .  A
C4526     Br4531   1.927       .  S
C4527      C4528   1.417       .  A
C4528     Br4529   1.930       .  S
C4533      C4534   1.417       .  A
C4533      C4538   1.432       .  A
C4533     Br4540   1.915       .  S
C4534      C4535   1.413       .  A
C4535      C4536   1.427       .  A
C4535     Br4542   1.929       .  S
C4536      C4537   1.440       .  A
C4536     Br4541   1.943       .  S
C4537      C4538   1.426       .  A
C4538     Br4539   1.924       .  S
C4543      C4544   1.414       .  A
C4543      C4548   1.427       .  A
C4543     Br4550   1.922       .  S
C4544      C4545   1.411       .  A
C4545      C4546   1.425       .  A
C4545     Br4552   1.932       .  S
C4546      C4547   1.439       .  A
C4546     Br4551   1.941       .  S
C4547      C4548   1.427       .  A
C4548     Br4549   1.924       .  S
C4553      C4554   1.408       .  A
C4553      C4558   1.428       .  A
C4553     Br4560   1.931       .  S
C4554      C4555   1.411       .  A
C4555      C4556   1.424       .  A
C4555     Br4562   1.921       .  S
C4556      C4557   1.426       .  A
C4556     Br4561   1.925       .  S
C4557      C4558   1.438       .  A
C4558     Br4559   1.932       .  S
C4563      C4564   1.418       .  A
C4563      C4568   1.425       .  A
C4563     Br4570   1.893       .  S
C4564      C4565   1.414       .  A
C4565      C4566   1.425       .  A
C4565     Br4572   1.923       .  S
C4566      C4567   1.427       .  A
C4566     Br4571   1.934       .  S
C4567      C4568   1.414       .  A
C4568     Br4569   1.930       .  S
C4573      C4574   1.431       .  A
C4573      C4578   1.430       .  A
C4573     Br4580   1.932       .  S
C4574      C4575   1.432       .  A
C4575      C4576   1.429       .  A
C4575     Br4582   1.924       .  S
C4576      C4577   1.409       .  A
C4576     Br4581   1.929       .  S
C4577      C4578   1.416       .  A
C4578     Br4579   1.931       .  S
C4583      C4584   1.423       .  A
C4583      C4588   1.427       .  A
C4583     Br4590   1.933       .  S
C4584      C4585   1.426       .  A
C4585      C4586   1.432       .  A
C4585     Br4592   1.930       .  S
C4586      C4587   1.417       .  A
C4586     Br4591   1.927       .  S
C4587      C4588   1.422       .  A
C4588     Br4589   1.932       .  S
C4593      C4594   1.434       .  A
C4593      C4598   1.427       .  A
C4593     Br4600   1.933       .  S
C4594      C4595   1.437       .  A
C4595      C4596   1.428       .  A
C4595     Br4602   1.934       .  S
C4596      C4597   1.408       .  A
C4596     Br4601   1.931       .  S
C4597      C4598   1.409       .  A
C4598     Br4599   1.930       .  S
C4603      C4604   1.411       .  A
C4603      C4608   1.429       .  A
C4603     Br4610   1.931       .  S
C4604      C4605   1.410       .  A
C4605      C4606   1.427       .  A
C4605     Br4612   1.920       .  S
C4606      C4607   1.431       .  A
C4606     Br4611   1.933       .  S
C4607      C4608   1.434       .  A
C4608     Br4609   1.933       .  S
C4613      C4614   1.436       .  A
C4613      C4618   1.427       .  A
C4613     Br4620   1.926       .  S
C4614      C4615   1.430       .  A
C4615      C4616   1.428       .  A
C4615     Br4622   1.935       .  S
C4616      C4617   1.415       .  A
C4616     Br4621   1.926       .  S
C4617      C4618   1.407       .  A
C4618     Br4619   1.933       .  S
C4623      C4624   1.434       .  A
C4623      C4628   1.428       .  A
C4623     Br4630   1.934       .  S
C4624      C4625   1.427       .  A
C4625      C4626   1.432       .  A
C4625     Br4632   1.929       .  S
C4626      C4627   1.415       .  A
C4626     Br4631   1.926       .  S
C4627      C4628   1.410       .  A
C4628     Br4629   1.932       .  S
C4633      C4634   1.418       .  A
C4633      C4638   1.436       .  A
C4633     Br4640   1.926       .  S
C4634      C4635   1.421       .  A
C4635      C4636   1.421       .  A
C4635     Br4642   1.932       .  S
C4636      C4637   1.417       .  A
C4636     Br4641   1.921       .  S
C4637      C4638   1.428       .  A
C4638     Br4639   1.925       .  S
C4643      C4644   1.423       .  A
C4643      C4648   1.424       .  A
C4643     Br4650   1.928       .  S
C4644      C4645   1.434       .  A
C4645      C4646   1.431       .  A
C4645     Br4652   1.933       .  S
C4646      C4647   1.415       .  A
C4646     Br4651   1.934       .  S
C4647      C4648   1.413       .  A
C4648     Br4649   1.903   1_455  S
C4653      C4654   1.424       .  A
C4653      C4658   1.437       .  A
C4653     Br4660   1.922       .  S
C4654      C4655   1.401       .  A
C4655      C4656   1.405       .  A
C4655     Br4662   1.926       .  S
C4656      C4657   1.421       .  A
C4656     Br4661   1.914       .  S
C4657      C4658   1.423       .  A
C4658     Br4659   1.924       .  S
C4663      C4664   1.406       .  A
C4663      C4668   1.412       .  A
C4663     Br4670   1.926       .  S
C4664      C4665   1.423       .  A
C4665      C4666   1.439       .  A
C4665     Br4672   1.922       .  S
C4666      C4667   1.424       .  A
C4666     Br4671   1.925       .  S
C4667      C4668   1.427       .  A
C4668     Br4669   1.929       .  S
C4673      C4674   1.407       .  A
C4673      C4678   1.423       .  A
C4673     Br4680   1.932       .  S
C4674      C4675   1.413       .  A
C4675      C4676   1.429       .  A
C4675     Br4682   1.930       .  S
C4676      C4677   1.430       .  A
C4676     Br4681   1.931       .  S
C4677      C4678   1.432       .  A
C4678     Br4679   1.928       .  S
C4683      C4684   1.437       .  A
C4683      C4688   1.428       .  A
C4683     Br4690   1.935       .  S
C4684      C4685   1.432       .  A
C4685      C4686   1.428       .  A
C4685     Br4692   1.934       .  S
C4686      C4687   1.412       .  A
C4686     Br4691   1.932       .  S
C4687      C4688   1.409       .  A
C4688     Br4689   1.932       .  S
C4693      C4694   1.428       .  A
C4693      C4698   1.427       .  A
C4693     Br4700   1.935       .  S
C4694      C4695   1.437       .  A
C4695      C4696   1.428       .  A
C4695     Br4702   1.931       .  S
C4696      C4697   1.407       .  A
C4696     Br4701   1.931       .  S
C4697      C4698   1.418       .  A
C4698     Br4699   1.933       .  S
C4703      C4704   1.426       .  A
C4703      C4708   1.431       .  A
C4703     Br4710   1.928       .  S
C4704      C4705   1.427       .  A
C4705      C4706   1.426       .  A
C4705     Br4712   1.933       .  S
C4706      C4707   1.414       .  A
C4706     Br4711   1.931       .  S
C4707      C4708   1.415       .  A
C4708     Br4709   1.928       .  S
C4713      C4714   1.431       .  A
C4713      C4718   1.426       .  A
C4713     Br4720   1.934       .  S
C4714      C4715   1.435       .  A
C4715      C4716   1.426       .  A
C4715     Br4722   1.926       .  S
C4716      C4717   1.406       .  A
C4716     Br4721   1.932       .  S
C4717      C4718   1.414       .  A
C4718     Br4719   1.934       .  S
C4723      C4724   1.433       .  A
C4723      C4728   1.431       .  A
C4723     Br4730   1.929       .  S
C4724      C4725   1.427       .  A
C4725      C4726   1.426       .  A
C4725     Br4732   1.935       .  S
C4726      C4727   1.416       .  A
C4726     Br4731   1.926       .  S
C4727      C4728   1.411       .  A
C4728     Br4729   1.928       .  S
C4733      C4734   1.412       .  A
C4733      C4738   1.429       .  A
C4733     Br4740   1.933       .  S
C4734      C4735   1.419       .  A
C4735      C4736   1.439       .  A
C4735     Br4742   1.932       .  S
C4736      C4737   1.433       .  A
C4736     Br4741   1.924       .  S
C4737      C4738   1.442       .  A
C4738     Br4739   1.936       .  S
C4743      C4744   1.409       .  A
C4743      C4748   1.429       .  A
C4743     Br4750   1.932       .  S
C4744      C4745   1.417       .  A
C4745      C4746   1.427       .  A
C4745     Br4752   1.933       .  S
C4746      C4747   1.427       .  A
C4746     Br4751   1.932       .  S
C4747      C4748   1.435       .  A
C4748     Br4749   1.925       .  S
C4753      C4754   1.423       .  A
C4753      C4758   1.435       .  A
C4753     Br4760   1.928       .  S
C4754      C4755   1.424       .  A
C4755      C4756   1.424       .  A
C4755     Br4762   1.932       .  S
C4756      C4757   1.418       .  A
C4756     Br4761   1.934       .  S
C4757      C4758   1.421       .  A
C4758     Br4759   1.927       .  S
C4763      C4764   1.434       .  A
C4763      C4768   1.425       .  A
C4763     Br4770   1.937       .  S
C4764      C4765   1.432       .  A
C4765      C4766   1.435       .  A
C4765     Br4772   1.930       .  S
C4766      C4767   1.415       .  A
C4766     Br4771   1.927       .  S
C4767      C4768   1.412       .  A
C4768     Br4769   1.934       .  S
C4773      C4774   1.439       .  A
C4773      C4778   1.430       .  A
C4773     Br4780   1.938       .  S
C4774      C4775   1.428       .  A
C4775      C4776   1.432       .  A
C4775     Br4782   1.930       .  S
C4776      C4777   1.416       .  A
C4776     Br4781   1.930       .  S
C4777      C4778   1.409       .  A
C4778     Br4779   1.932       .  S
C4783      C4784   1.432       .  A
C4783      C4788   1.428       .  A
C4783     Br4790   1.930       .  S
C4784      C4785   1.428       .  A
C4785      C4786   1.427       .  A
C4785     Br4792   1.932       .  S
C4786      C4787   1.414       .  A
C4786     Br4791   1.931       .  S
C4787      C4788   1.409       .  A
C4788     Br4789   1.928       .  S
C4793      C4794   1.425       .  A
C4793      C4798   1.429       .  A
C4793     Br4800   1.929       .  S
C4794      C4795   1.431       .  A
C4795      C4796   1.430       .  A
C4795     Br4802   1.931       .  S
C4796      C4797   1.417       .  A
C4796     Br4801   1.933       .  S
C4797      C4798   1.414       .  A
C4798     Br4799   1.913       .  S
C4803      C4804   1.415       .  A
C4803      C4808   1.413       .  A
C4803     Br4810   1.915       .  S
C4804      C4805   1.412       .  A
C4805      C4806   1.430       .  A
C4805     Br4812   1.926       .  S
C4806      C4807   1.425       .  A
C4806     Br4811   1.916       .  S
C4807      C4808   1.410       .  A
C4808     Br4809   1.923       .  S
C4813      C4814   1.438       .  A
C4813      C4818   1.431       .  A
C4813     Br4820   1.932       .  S
C4814      C4815   1.432       .  A
C4815      C4816   1.428       .  A
C4815     Br4822   1.934       .  S
C4816      C4817   1.415       .  A
C4816     Br4821   1.931       .  S
C4817      C4818   1.409       .  A
C4818     Br4819   1.932       .  S
C4823      C4824   1.430       .  A
C4823      C4828   1.428       .  A
C4823     Br4830   1.935       .  S
C4824      C4825   1.434       .  A
C4825      C4826   1.431       .  A
C4825     Br4832   1.927       .  S
C4826      C4827   1.411       .  A
C4826     Br4831   1.930       .  S
C4827      C4828   1.418       .  A
C4828     Br4829   1.933       .  S
C4833      C4834   1.429       .  A
C4833      C4838   1.433       .  A
C4833     Br4840   1.925       .  S
C4834      C4835   1.423       .  A
C4835      C4836   1.422       .  A
C4835     Br4842   1.935       .  S
C4836      C4837   1.416       .  A
C4836     Br4841   1.918       .  S
C4837      C4838   1.414       .  A
C4838     Br4839   1.927       .  S
C4843      C4844   1.410       .  A
C4843      C4848   1.428       .  A
C4843     Br4850   1.932       .  S
C4844      C4845   1.411       .  A
C4845      C4846   1.429       .  A
C4845     Br4852   1.931       .  S
C4846      C4847   1.432       .  A
C4846     Br4851   1.927       .  S
C4847      C4848   1.433       .  A
C4848     Br4849   1.932       .  S
C4853      C4854   1.433       .  A
C4853      C4858   1.430       .  A
C4853     Br4860   1.931       .  S
C4854      C4855   1.428       .  A
C4855      C4856   1.427       .  A
C4855     Br4862   1.934       .  S
C4856      C4857   1.416       .  A
C4856     Br4861   1.929       .  S
C4857      C4858   1.411       .  A
C4858     Br4859   1.928       .  S
C4863      C4864   1.429       .  A
C4863      C4868   1.434       .  A
C4863     Br4870   1.921       .  S
C4864      C4865   1.432       .  A
C4865      C4866   1.430       .  A
C4865     Br4872   1.932       .  S
C4866      C4867   1.413       .  A
C4866     Br4871   1.932       .  S
C4867      C4868   1.414       .  A
C4868     Br4869   1.929       .  S
C4873      C4874   1.423       .  A
C4873      C4878   1.423       .  A
C4873     Br4880   1.933       .  S
C4874      C4875   1.423       .  A
C4875      C4876   1.431       .  A
C4875     Br4882   1.923       .  S
C4876      C4877   1.417       .  A
C4876     Br4881   1.928       .  S
C4877      C4878   1.416       .  A
C4878     Br4879   1.933       .  S
C4883      C4884   1.435       .  A
C4883      C4888   1.432       .  A
C4883     Br4890   1.928       .  S
C4884      C4885   1.432       .  A
C4885      C4886   1.431       .  A
C4885     Br4892   1.934       .  S
C4886      C4887   1.417       .  A
C4886     Br4891   1.933       .  S
C4887      C4888   1.412       .  A
C4888     Br4889   1.931       .  S
C4893      C4894   1.429       .  A
C4893      C4898   1.429       .  A
C4893     Br4900   1.932       .  S
C4894      C4895   1.420       .  A
C4895      C4896   1.434       .  A
C4895     Br4902   1.929       .  S
C4896      C4897   1.419       .  A
C4896     Br4901   1.906       .  S
C4897      C4898   1.416       .  A
C4898     Br4899   1.932       .  S
C4903      C4904   1.416       .  A
C4903      C4908   1.429       .  A
C4903     Br4910   1.925       .  S
C4904      C4905   1.425       .  A
C4905      C4906   1.428       .  A
C4905     Br4912   1.931       .  S
C4906      C4907   1.418       .  A
C4906     Br4911   1.928       .  S
C4907      C4908   1.421       .  A
C4908     Br4909   1.913       .  S
C4913      C4914   1.418       .  A
C4913      C4918   1.429       .  A
C4913     Br4920   1.927       .  S
C4914      C4915   1.413       .  A
C4915      C4916   1.426       .  A
C4915     Br4922   1.930       .  S
C4916      C4917   1.424       .  A
C4916     Br4921   1.928       .  S
C4917      C4918   1.419       .  A
C4918     Br4919   1.927       .  S
C4923      C4924   1.416       .  A
C4923      C4928   1.428       .  A
C4923     Br4930   1.927       .  S
C4924      C4925   1.412       .  A
C4925      C4926   1.424       .  A
C4925     Br4932   1.930       .  S
C4926      C4927   1.422       .  A
C4926     Br4931   1.925       .  S
C4927      C4928   1.419       .  A
C4928     Br4929   1.924       .  S
C4933      C4934   1.423       .  A
C4933      C4938   1.439       .  A
C4933     Br4940   1.926       .  S
C4934      C4935   1.421       .  A
C4935      C4936   1.423       .  A
C4935     Br4942   1.929       .  S
C4936      C4937   1.422       .  A
C4936     Br4941   1.934       .  S
C4937      C4938   1.422       .  A
C4938     Br4939   1.924       .  S
C4943      C4944   1.418       .  A
C4943      C4948   1.431       .  A
C4943     Br4950   1.926       .  S
C4944      C4945   1.432       .  A
C4945      C4946   1.426       .  A
C4945     Br4952   1.937       .  S
C4946      C4947   1.417       .  A
C4946     Br4951   1.936       .  S
C4947      C4948   1.417       .  A
C4948     Br4949   1.898   1_554  S
C4953      C4954   1.409       .  A
C4953      C4958   1.422       .  A
C4953     Br4960   1.935       .  S
C4954      C4955   1.412       .  A
C4955      C4956   1.429       .  A
C4955     Br4962   1.929       .  S
C4956      C4957   1.429       .  A
C4956     Br4961   1.930       .  S
C4957      C4958   1.434       .  A
C4958     Br4959   1.938       .  S
C4963      C4964   1.417       .  A
C4963      C4968   1.424       .  A
C4963     Br4970   1.926       .  S
C4964      C4965   1.412       .  A
C4965      C4966   1.429       .  A
C4965     Br4972   1.929       .  S
C4966      C4967   1.432       .  A
C4966     Br4971   1.932       .  S
C4967      C4968   1.424       .  A
C4968     Br4969   1.934       .  S
C4973      C4974   1.417       .  A
C4973      C4978   1.432       .  A
C4973     Br4980   1.925       .  S
C4974      C4975   1.415       .  A
C4975      C4976   1.423       .  A
C4975     Br4982   1.929       .  S
C4976      C4977   1.420       .  A
C4976     Br4981   1.924       .  S
C4977      C4978   1.420       .  A
C4978     Br4979   1.924       .  S
C4983      C4984   1.417       .  A
C4983      C4988   1.430       .  A
C4983     Br4990   1.926       .  S
C4984      C4985   1.413       .  A
C4985      C4986   1.426       .  A
C4985     Br4992   1.931       .  S
C4986      C4987   1.424       .  A
C4986     Br4991   1.926       .  S
C4987      C4988   1.420       .  A
C4988     Br4989   1.928       .  S
C4993      C4994   1.425       .  A
C4993      C4998   1.433       .  A
C4993     Br5000   1.925       .  S
C4994      C4995   1.434       .  A
C4995      C4996   1.429       .  A
C4995     Br5002   1.927       .  S
C4996      C4997   1.412       .  A
C4996     Br5001   1.934       .  S
C4997      C4998   1.420       .  A
C4998     Br4999   1.926       .  S
C5003      C5004   1.435       .  A
C5003      C5008   1.433       .  A
C5003     Br5010   1.924       .  S
C5004      C5005   1.437       .  A
C5005      C5006   1.427       .  A
C5005     Br5012   1.939       .  S
C5006      C5007   1.412       .  A
C5006     Br5011   1.922       .  S
C5007      C5008   1.412       .  A
C5008     Br5009   1.923       .  S
C5013      C5014   1.419       .  A
C5013      C5018   1.433       .  A
C5013     Br5020   1.927       .  S
C5014      C5015   1.422       .  A
C5015      C5016   1.420       .  A
C5015     Br5022   1.935       .  S
C5016      C5017   1.415       .  A
C5016     Br5021   1.931       .  S
C5017      C5018   1.422       .  A
C5018     Br5019   1.921       .  S
C5023      C5024   1.427       .  A
C5023      C5028   1.430       .  A
C5023     Br5030   1.930       .  S
C5024      C5025   1.425       .  A
C5025      C5026   1.422       .  A
C5025     Br5032   1.935       .  S
C5026      C5027   1.415       .  A
C5026     Br5031   1.933       .  S
C5027      C5028   1.415       .  A
C5028     Br5029   1.928       .  S
C5033      C5034   1.427       .  A
C5033      C5038   1.426       .  A
C5033     Br5040   1.933       .  S
C5034      C5035   1.422       .  A
C5035      C5036   1.434       .  A
C5035     Br5042   1.928       .  S
C5036      C5037   1.422       .  A
C5036     Br5041   1.926       .  S
C5037      C5038   1.418       .  A
C5038     Br5039   1.932       .  S
C5043      C5044   1.417       .  A
C5043      C5048   1.433       .  A
C5043     Br5050   1.931       .  S
C5044      C5045   1.411       .  A
C5045      C5046   1.432       .  A
C5045     Br5052   1.930       .  S
C5046      C5047   1.437       .  A
C5046     Br5051   1.934       .  S
C5047      C5048   1.431       .  A
C5048     Br5049   1.932       .  S
C5053      C5054   1.423       .  A
C5053      C5058   1.426       .  A
C5053     Br5060   1.932       .  S
C5054      C5055   1.422       .  A
C5055      C5056   1.433       .  A
C5055     Br5062   1.925       .  S
C5056      C5057   1.419       .  A
C5056     Br5061   1.928       .  S
C5057      C5058   1.417       .  A
C5058     Br5059   1.931       .  S
C5063      C5064   1.439       .  A
C5063      C5068   1.429       .  A
C5063     Br5070   1.935       .  S
C5064      C5065   1.432       .  A
C5065      C5066   1.431       .  A
C5065     Br5072   1.931       .  S
C5066      C5067   1.414       .  A
C5066     Br5071   1.932       .  S
C5067      C5068   1.408       .  A
C5068     Br5069   1.932       .  S
C5073      C5074   1.421       .  A
C5073      C5078   1.433       .  A
C5073     Br5080   1.925       .  S
C5074      C5075   1.416       .  A
C5075      C5076   1.415       .  A
C5075     Br5082   1.910       .  S
C5076      C5077   1.412       .  A
C5076     Br5081   1.929       .  S
C5077      C5078   1.423       .  A
C5078     Br5079   1.928       .  S
C5083      C5084   1.415       .  A
C5083      C5088   1.428       .  A
C5083     Br5090   1.924       .  S
C5084      C5085   1.421       .  A
C5085      C5086   1.429       .  A
C5085     Br5092   1.931       .  S
C5086      C5087   1.423       .  A
C5086     Br5091   1.932       .  S
C5087      C5088   1.418       .  A
C5088     Br5089   1.912       .  S
C5093      C5094   1.432       .  A
C5093      C5098   1.431       .  A
C5093     Br5100   1.931       .  S
C5094      C5095   1.430       .  A
C5095      C5096   1.428       .  A
C5095     Br5102   1.932       .  S
C5096      C5097   1.413       .  A
C5096     Br5101   1.930       .  S
C5097      C5098   1.413       .  A
C5098     Br5099   1.928       .  S
C5103      C5104   1.437       .  A
C5103      C5108   1.432       .  A
C5103     Br5110   1.933       .  S
C5104      C5105   1.432       .  A
C5105      C5106   1.425       .  A
C5105     Br5112   1.937       .  S
C5106      C5107   1.409       .  A
C5106     Br5111   1.919       .  S
C5107      C5108   1.410       .  A
C5108     Br5109   1.931       .  S
C5113      C5114   1.431       .  A
C5113      C5118   1.427       .  A
C5113     Br5120   1.933       .  S
C5114      C5115   1.436       .  A
C5115      C5116   1.430       .  A
C5115     Br5122   1.933       .  S
C5116      C5117   1.410       .  A
C5116     Br5121   1.931       .  S
C5117      C5118   1.413       .  A
C5118     Br5119   1.931       .  S
C5123      C5124   1.423       .  A
C5123      C5128   1.425       .  A
C5123     Br5130   1.935       .  S
C5124      C5125   1.427       .  A
C5125      C5126   1.429       .  A
C5125     Br5132   1.928       .  S
C5126      C5127   1.414       .  A
C5126     Br5131   1.928       .  S
C5127      C5128   1.419       .  A
C5128     Br5129   1.929       .  S
C5133      C5134   1.420       .  A
C5133      C5138   1.430       .  A
C5133     Br5140   1.928       .  S
C5134      C5135   1.422       .  A
C5135      C5136   1.425       .  A
C5135     Br5142   1.934       .  S
C5136      C5137   1.423       .  A
C5136     Br5141   1.934       .  S
C5137      C5138   1.423       .  A
C5138     Br5139   1.931       .  S
C5143      C5144   1.432       .  A
C5143      C5148   1.426       .  A
C5143     Br5150   1.935       .  S
C5144      C5145   1.427       .  A
C5145      C5146   1.429       .  A
C5145     Br5152   1.928       .  S
C5146      C5147   1.413       .  A
C5146     Br5151   1.928       .  S
C5147      C5148   1.410       .  A
C5148     Br5149   1.932       .  S
C5153      C5154   1.424       .  A
C5153      C5158   1.436       .  A
C5153     Br5160   1.924       .  S
C5154      C5155   1.424       .  A
C5155      C5156   1.425       .  A
C5155     Br5162   1.922       .  S
C5156      C5157   1.415       .  A
C5156     Br5161   1.934       .  S
C5157      C5158   1.419       .  A
C5158     Br5159   1.927       .  S
C5163      C5164   1.418       .  A
C5163      C5168   1.433       .  A
C5163     Br5170   1.926       .  S
C5164      C5165   1.412       .  A
C5165      C5166   1.425       .  A
C5165     Br5172   1.928       .  S
C5166      C5167   1.437       .  A
C5166     Br5171   1.939       .  S
C5167      C5168   1.430       .  A
C5168     Br5169   1.924       .  S
C5173      C5174   1.422       .  A
C5173      C5178   1.424       .  A
C5173     Br5180   1.932       .  S
C5174      C5175   1.419       .  A
C5175      C5176   1.432       .  A
C5175     Br5182   1.929       .  S
C5176      C5177   1.419       .  A
C5176     Br5181   1.912       .  S
C5177      C5178   1.417       .  A
C5178     Br5179   1.924       .  S
C5183      C5184   1.424       .  A
C5183      C5188   1.429       .  A
C5183     Br5190   1.928       .  S
C5184      C5185   1.425       .  A
C5185      C5186   1.424       .  A
C5185     Br5192   1.934       .  S
C5186      C5187   1.414       .  A
C5186     Br5191   1.931       .  S
C5187      C5188   1.414       .  A
C5188     Br5189   1.924       .  S
C5193      C5194   1.435       .  A
C5193      C5198   1.432       .  A
C5193     Br5200   1.933       .  S
C5194      C5195   1.436       .  A
C5195      C5196   1.432       .  A
C5195     Br5202   1.934       .  S
C5196      C5197   1.412       .  A
C5196     Br5201   1.931       .  S
C5197      C5198   1.414       .  A
C5198     Br5199   1.931       .  S
C5203      C5204   1.434       .  A
C5203      C5208   1.429       .  A
C5203     Br5210   1.933       .  S
C5204      C5205   1.430       .  A
C5205      C5206   1.427       .  A
C5205     Br5212   1.934       .  S
C5206      C5207   1.412       .  A
C5206     Br5211   1.927       .  S
C5207      C5208   1.410       .  A
C5208     Br5209   1.929       .  S
C5213      C5214   1.422       .  A
C5213      C5218   1.430       .  A
C5213     Br5220   1.930       .  S
C5214      C5215   1.429       .  A
C5215      C5216   1.429       .  A
C5215     Br5222   1.932       .  S
C5216      C5217   1.414       .  A
C5216     Br5221   1.930       .  S
C5217      C5218   1.415       .  A
C5218     Br5219   1.915       .  S
C5223      C5224   1.433       .  A
C5223      C5228   1.430       .  A
C5223     Br5230   1.931       .  S
C5224      C5225   1.438       .  A
C5225      C5226   1.431       .  A
C5225     Br5232   1.935       .  S
C5226      C5227   1.409       .  A
C5226     Br5231   1.930       .  S
C5227      C5228   1.413       .  A
C5228     Br5229   1.931       .  S
C5233      C5234   1.425       .  A
C5233      C5238   1.423       .  A
C5233     Br5240   1.922       .  S
C5234      C5235   1.426       .  A
C5235      C5236   1.436       .  A
C5235     Br5242   1.926       .  S
C5236      C5237   1.422       .  A
C5236     Br5241   1.927       .  S
C5237      C5238   1.414       .  A
C5238     Br5239   1.926       .  S
C5243      C5244   1.418       .  A
C5243      C5248   1.437       .  A
C5243     Br5250   1.919   1_655  S
C5244      C5245   1.413       .  A
C5245      C5246   1.432       .  A
C5245     Br5252   1.935       .  S
C5246      C5247   1.443       .  A
C5246     Br5251   1.936       .  S
C5247      C5248   1.431       .  A
C5248     Br5249   1.924       .  S
C5253      C5254   1.433       .  A
C5253      C5258   1.431       .  A
C5253     Br5260   1.932       .  S
C5254      C5255   1.437       .  A
C5255      C5256   1.432       .  A
C5255     Br5262   1.932       .  S
C5256      C5257   1.410       .  A
C5256     Br5261   1.930       .  S
C5257      C5258   1.413       .  A
C5258     Br5259   1.932       .  S
C5263      C5264   1.422       .  A
C5263      C5268   1.427       .  A
C5263     Br5270   1.931       .  S
C5264      C5265   1.424       .  A
C5265      C5266   1.427       .  A
C5265     Br5272   1.928       .  S
C5266      C5267   1.415       .  A
C5266     Br5271   1.930       .  S
C5267      C5268   1.417       .  A
C5268     Br5269   1.917       .  S
C5273      C5274   1.430       .  A
C5273      C5278   1.428       .  A
C5273     Br5280   1.934       .  S
C5274      C5275   1.434       .  A
C5275      C5276   1.429       .  A
C5275     Br5282   1.931       .  S
C5276      C5277   1.411       .  A
C5276     Br5281   1.930       .  S
C5277      C5278   1.415       .  A
C5278     Br5279   1.932       .  S
C5283      C5284   1.409       .  A
C5283      C5288   1.428       .  A
C5283     Br5290   1.932       .  S
C5284      C5285   1.411       .  A
C5285      C5286   1.430       .  A
C5285     Br5292   1.930       .  S
C5286      C5287   1.433       .  A
C5286     Br5291   1.930       .  S
C5287      C5288   1.436       .  A
C5288     Br5289   1.930       .  S
