geometry optimzed in LAMMPS
_audit_creation_date              2020-11-30 
_audit_creation_method            'lammps2cif' 
_symmetry_space_group_name_H-M    'P1' 
_symmetry_Int_Tables_number       1 
_symmetry_cell_setting            triclinic 
loop_ 
_symmetry_equiv_pos_as_xyz 
  x,y,z 
_cell_length_a                    48.70365767 
_cell_length_b                    49.063536671754555 
_cell_length_c                    48.90907084807057 
_cell_angle_alpha                 90.53380302152884 
_cell_angle_beta                  90.12747369910973 
_cell_angle_gamma                 89.66515208569656 
loop_ 
_atom_site_label 
_atom_site_type_symbol 
_atom_site_fract_x 
_atom_site_fract_y 
_atom_site_fract_z 
_atom_site_charge 
O1          O  0.02777164  0.44113686  0.27600087    -0.81300
O2          O  0.97122893  0.53761902  0.29408589    -0.81400
O3          O  0.05750908  0.53212071  0.25810891    -0.81400
O4          O  0.94607993  0.47591620  0.26159967    -0.81300
O5          O  0.02796745  0.53800754  0.29110171    -0.81400
O6          O  0.97977303  0.46952973  0.29077793    -0.81300
O7          O  0.93858433  0.52978011  0.26371922    -0.81300
O8          O  0.04856981  0.48112879  0.27241769    -0.81400
C9          C  0.04777445  0.45673172  0.28234287     1.08400
C10         C  0.94603448  0.53787987  0.28760842     1.08200
C11         C  0.05196646  0.54071510  0.28205927     1.08400
C12         C  0.95456601  0.46602612  0.28383215     1.08300
O13         O  0.98317081  0.44719584  0.23800227    -0.81300
O14         O  0.02357255  0.56270916  0.23620354    -0.81400
O15         O  0.06719218  0.49014854  0.22037133    -0.81300
O16         O  0.96396261  0.53325696  0.20896499    -0.81300
O17         O  0.96890774  0.56372222  0.24171286    -0.81400
O18         O  0.03294827  0.46185764  0.22525210    -0.81300
O19         O  0.96958518  0.47694193  0.20793346    -0.81300
O20         O  0.02819242  0.52862727  0.20711845    -0.81400
Co21       Co  0.00786541  0.47085845  0.26013077     1.51500
Co22       Co  0.99803738  0.54776899  0.26561574     1.51700
Co23       Co  0.03505047  0.50358107  0.23821991     1.51600
Co24       Co  0.95740359  0.50437407  0.23571450     1.51500
O25         O  0.99626174  0.50907023  0.25043758    -1.43300
C26         C  0.97146455  0.45233384  0.21542083     1.08300
C27         C  0.03059653  0.55392138  0.21249947     1.08400
C28         C  0.05633043  0.46757777  0.21399638     1.08300
C29         C  0.96174487  0.55743177  0.21751179     1.08300
O30         O  0.52872862  0.03093331  0.28369064    -0.81300
O31         O  0.46536289  0.98468102  0.27669187    -0.81400
O32         O  0.47147131  0.04956813  0.26652520    -0.81400
O33         O  0.52611694  0.94451157  0.24711183    -0.81300
O34         O  0.43224221  0.02760776  0.26252028    -0.81400
O35         O  0.53015749  0.97445863  0.28061138    -0.81300
O36         O  0.47083556  0.95131784  0.24654209    -0.81300
O37         O  0.52329505  0.06304451  0.25414255    -0.81400
C38         C  0.53098569  0.05583803  0.27772115     1.08400
C39         C  0.46233054  0.95988764  0.26976341     1.08200
C40         C  0.44627674  0.04598477  0.27446818     1.08400
C41         C  0.53266915  0.95032166  0.27173800     1.08300
O42         O  0.56027239  0.97768037  0.22938304    -0.81300
O43         O  0.45723647  0.03724672  0.21318487    -0.81400
O44         O  0.52335290  0.04054329  0.20073016    -0.81300
O45         O  0.47432642  0.97831745  0.19323677    -0.81300
O46         O  0.44145624  0.98610026  0.22236058    -0.81400
O47         O  0.55636261  0.03199143  0.23067149    -0.81300
O48         O  0.53084645  0.97395680  0.19571513    -0.81300
O49         O  0.48170869  0.07512598  0.21791861    -0.81400
Co50       Co  0.54125276  0.00372458  0.25584559     1.51500
Co51       Co  0.46433158  0.01145336  0.24647778     1.51700
Co52       Co  0.49637307  0.04187928  0.23145649     1.51600
Co53       Co  0.50062019  0.96455798  0.22096133     1.51500
O54         O  0.50371527  0.00225500  0.23826359    -1.43300
C55         C  0.55536050  0.97289534  0.20421765     1.08300
C56         C  0.46125771  0.06266671  0.20778846     1.08400
C57         C  0.54856630  0.04163116  0.20775880     1.08300
C58         C  0.44926166  0.97648241  0.19931840     1.08300
O59         O  0.20612782  0.03221440  0.48224154    -0.81300
O60         O  0.20700226  0.96799916  0.52452290    -0.81400
O61         O  0.24032114  0.97518155  0.43811495    -0.81400
O62         O  0.22856385  0.02692155  0.54821993    -0.81300
O63         O  0.20756455  0.96745394  0.46751183    -0.81400
O64         O  0.22365843  0.06565281  0.52566021    -0.81300
O65         O  0.23848306  0.97502137  0.55597553    -0.81300
O66         O  0.23380232  0.02870872  0.44668084    -0.81400
C67         C  0.21009968  0.03395254  0.45652665     1.08400
C68         C  0.21475362  0.96604943  0.54922666     1.08200
C69         C  0.21612128  0.96697940  0.44322775     1.08400
C70         C  0.21868102  0.05147893  0.54668186     1.08300
O71         O  0.27527675  0.04302534  0.52892859    -0.81300
O72         O  0.26371932  0.94387685  0.46966643    -0.81400
O73         O  0.28921755  0.03214196  0.47015608    -0.81300
O74         O  0.29149366  0.97409676  0.52823534    -0.81300
O75         O  0.26006164  0.94287672  0.52425246    -0.81400
O76         O  0.25686438  0.06083842  0.47897569    -0.81300
O77         O  0.28001947  0.01610019  0.56480069    -0.81300
O78         O  0.29305308  0.97792221  0.46686282    -0.81400
Co79       Co  0.23906920  0.03512060  0.50641748     1.51500
Co80       Co  0.23458572  0.95821290  0.49627602     1.51700
Co81       Co  0.26389245  0.00317853  0.45792587     1.51600
Co82       Co  0.26123319  0.00185185  0.53413653     1.51500
O83         O  0.24881804  0.99701199  0.49569222    -1.43300
C84         C  0.28654044  0.03790033  0.55240741     1.08300
C85         C  0.28762893  0.95318673  0.46410260     1.08400
C86         C  0.28008335  0.05600696  0.46800283     1.08300
C87         C  0.28455128  0.94913722  0.52995621     1.08300
O88         O  0.01783894  0.29486271  0.52673497    -0.81300
O89         O  0.96140019  0.28951129  0.47396690    -0.81400
O90         O  0.04967198  0.26133580  0.46511537    -0.81400
O91         O  0.95073478  0.27550081  0.53231627    -0.81300
O92         O  0.01616226  0.29147163  0.46263652    -0.81400
O93         O  0.98010937  0.28181595  0.56620908    -0.81300
O94         O  0.93211576  0.25864797  0.48536057    -0.81300
O95         O  0.05243213  0.26629352  0.52085855    -0.81400
C96         C  0.04354803  0.28977009  0.52839251     1.08400
C97         C  0.93683551  0.28180352  0.47529661     1.08200
C98         C  0.04074311  0.28478596  0.45808557     1.08400
C99         C  0.95761156  0.28800241  0.55471941     1.08300
O100        O  0.97205278  0.22888848  0.54895465    -0.81300
O101        O  0.01305047  0.23713690  0.43843293    -0.81400
O102        O  0.03095323  0.21177671  0.52787151    -0.81300
O103        O  0.95954681  0.20699963  0.48422554    -0.81300
O104        O  0.95908745  0.23498287  0.44907558    -0.81400
O105        O  0.02191830  0.24543155  0.55609104    -0.81300
O106        O  0.93088570  0.22334121  0.53045247    -0.81300
O107        O  0.02563155  0.20760978  0.46964278    -0.81400
Co108      Co  0.99276151  0.26353237  0.53423597     1.51500
Co109      Co  0.98794202  0.26325935  0.45843965     1.51700
Co110      Co  0.03689171  0.23676667  0.49594381     1.51600
Co111      Co  0.95934733  0.23950333  0.50945179     1.51500
O112        O  0.99699363  0.24989154  0.49623414    -1.43300
C113        C  0.94833465  0.21711129  0.54885459     1.08300
C114        C  0.02153132  0.21337502  0.44466943     1.08400
C115        C  0.03140820  0.22167796  0.55207417     1.08300
C116        C  0.95312296  0.21199283  0.45945307     1.08300
O117        O  0.47111337  0.29059303  0.03464452    -0.81300
O118        O  0.56531760  0.27314541  0.97688611    -0.81400
O119        O  0.53411216  0.26244086  0.05652616    -0.81400
O120        O  0.47511006  0.25333477  0.94790720    -0.81300
O121        O  0.53313728  0.28931265  0.02053702    -0.81400
O122        O  0.46874487  0.28746918  0.97609843    -0.81300
O123        O  0.52481255  0.26807662  0.95686978    -0.81300
O124        O  0.47985144  0.26015272  0.06648082    -0.81400
C125        C  0.47220750  0.28403126  0.05981869     1.08400
C126        C  0.54843820  0.27974568  0.95809565     1.08200
C127        C  0.53814574  0.28582348  0.04579963     1.08400
C128        C  0.46672314  0.27758461  0.95209140     1.08300
O129        O  0.44423423  0.23348567  0.98159010    -0.81300
O130        O  0.56177195  0.23747987  0.02187254    -0.81400
O131        O  0.47491629  0.20625596  0.04382664    -0.81300
O132        O  0.51676592  0.21611164  0.93778831    -0.81300
O133        O  0.54610831  0.22124488  0.97187547    -0.81400
O134        O  0.44465829  0.23885992  0.03573209    -0.81300
O135        O  0.47767025  0.20318383  0.97727027    -0.81300
O136        O  0.53253806  0.20644436  0.03357004    -0.81400
Co137      Co  0.46000240  0.26249729  0.00694770     1.51500
Co138      Co  0.53595692  0.25656081  0.99604990     1.51700
Co139      Co  0.50520130  0.23365081  0.04738098     1.51600
Co140      Co  0.50340353  0.23367674  0.97021921     1.51500
O141        O  0.49824487  0.24636181  0.00841349    -1.43300
C142        C  0.45220168  0.20922000  0.97571200     1.08300
C143        C  0.55729752  0.21371379  0.03084928     1.08400
C144        C  0.45030150  0.21521107  0.04452017     1.08300
C145        C  0.53995035  0.21049030  0.94821157     1.08300
O146        O  0.30025163  0.52787000  0.02134036    -0.81300
O147        O  0.30048041  0.46297379  0.97687167    -0.81400
O148        O  0.26984373  0.47108126  0.06464038    -0.81400
O149        O  0.28183454  0.51976071  0.95553156    -0.81300
O150        O  0.30122060  0.46446955  0.03326355    -0.81400
O151        O  0.28314232  0.55953358  0.97753371    -0.81300
O152        O  0.26846645  0.46789458  0.94609650    -0.81300
O153        O  0.27172521  0.52537183  0.05658136    -0.81400
C154        C  0.29490308  0.53208443  0.04650425     1.08400
C155        C  0.29217294  0.45918755  0.95270921     1.08200
C156        C  0.29390554  0.46320855  0.05793595     1.08400
C157        C  0.28971147  0.54492662  0.95694186     1.08300
O158        O  0.23270711  0.53670090  0.97259739    -0.81300
O159        O  0.24873566  0.43713541  0.03322992    -0.81400
O160        O  0.21649302  0.52421326  0.03233334    -0.81300
O161        O  0.21684346  0.47132968  0.97482734    -0.81300
O162        O  0.24629626  0.43762389  0.97901984    -0.81400
O163        O  0.24760295  0.55376666  0.02198900    -0.81300
O164        O  0.23052291  0.50948721  0.93619946    -0.81300
O165        O  0.21622925  0.46805678  0.03924389    -0.81400
Co166      Co  0.26821442  0.52892141  0.99608630     1.51500
Co167      Co  0.27418079  0.45305698  0.00560787     1.51700
Co168      Co  0.24371706  0.49700085  0.04558961     1.51600
Co169      Co  0.24785445  0.49644560  0.96827422     1.51500
O170        O  0.25869190  0.49117893  0.00720704    -1.43300
C171        C  0.22297156  0.53116115  0.94852313     1.08300
C172        C  0.22445637  0.44359511  0.04049187     1.08400
C173        C  0.22379149  0.54882477  0.03104020     1.08300
C174        C  0.22219322  0.44600965  0.97313109     1.08300
O175        O  0.53587633  0.05397079  0.74114141    -0.81300
O176        O  0.46798206  0.96325207  0.71448047    -0.81400
O177        O  0.55727405  0.96625480  0.73341774    -0.81400
O178        O  0.44788333  0.02836072  0.74560743    -0.81300
O179        O  0.52117734  0.96320333  0.70894177    -0.81400
O180        O  0.48618416  0.03955608  0.72485626    -0.81300
O181        O  0.43736150  0.97111083  0.74550156    -0.81300
O182        O  0.54434328  0.01624207  0.72139557    -0.81400
C183        C  0.54819108  0.04162727  0.72250783     1.08400
C184        C  0.44399848  0.96012493  0.72280885     1.08200
C185        C  0.54555627  0.95653873  0.71240007     1.08400
C186        C  0.46047692  0.04193413  0.72710638     1.08300
O187        O  0.48329560  0.05659730  0.77846983    -0.81300
O188        O  0.52874897  0.93590035  0.76280512    -0.81400
O189        O  0.57030533  0.01161696  0.77230835    -0.81300
O190        O  0.46691005  0.96660300  0.79646359    -0.81300
O191        O  0.47096596  0.93455297  0.76584411    -0.81400
O192        O  0.53346123  0.03138469  0.79039488    -0.81300
O193        O  0.47208897  0.02139000  0.80114795    -0.81300
O194        O  0.53812118  0.97133640  0.78878744    -0.81400
Co195      Co  0.50714527  0.03138648  0.75783073     1.51500
Co196      Co  0.49738263  0.95151692  0.73865511     1.51700
Co197      Co  0.53824562  0.99531028  0.75676135     1.51600
Co198      Co  0.45909393  0.99664023  0.77086531     1.51500
O199        O  0.49767388  0.99073265  0.75302671    -1.43300
C200        C  0.47145961  0.04702990  0.79883706     1.08300
C201        C  0.54198655  0.94646538  0.78295631     1.08400
C202        C  0.55946511  0.02669160  0.79080900     1.08300
C203        C  0.46230205  0.94240324  0.78913612     1.08300
O204        O  0.73769490  0.52846513  0.06406945    -0.81300
O205        O  0.73366543  0.47455814  0.95463388    -0.81400
O206        O  0.71161580  0.53305246  0.97361306    -0.81400
O207        O  0.70915905  0.46914153  0.01964428    -0.81300
O208        O  0.74606596  0.52419010  0.94623401    -0.81400
O209        O  0.73505054  0.47351463  0.05654987    -0.81300
O210        O  0.72853118  0.43680439  0.97747058    -0.81300
O211        O  0.70683953  0.53384907  0.03202609    -0.81400
C212        C  0.71306454  0.53375690  0.05723928     1.08400
C213        C  0.72367576  0.45016453  0.95585171     1.08200
C214        C  0.72147822  0.53198971  0.94944515     1.08400
C215        C  0.71295690  0.46505011  0.04497108     1.08300
O216        O  0.79316632  0.47396990  0.03755869    -0.81300
O217        O  0.79600921  0.52735704  0.97499960    -0.81400
O218        O  0.76050130  0.56168821  0.03443355    -0.81300
O219        O  0.78034212  0.45901834  0.97803147    -0.81300
O220        O  0.78637079  0.48282014  0.94021503    -0.81400
O221        O  0.79228568  0.53060406  0.04094517    -0.81300
O222        O  0.76308442  0.44362691  0.02545279    -0.81300
O223        O  0.76409006  0.55884310  0.98000052    -0.81400
Co224      Co  0.76449243  0.50176883  0.04716047     1.51500
Co225      Co  0.76665679  0.49888218  0.97001674     1.51700
Co226      Co  0.73583745  0.54406780  0.00520238     1.51600
Co227      Co  0.74318358  0.46752807  0.99739769     1.51500
O228        O  0.75217927  0.50600927  0.00784958    -1.43300
C229        C  0.78589508  0.44931937  0.03698900     1.08300
C230        C  0.78811904  0.55215260  0.97235065     1.08400
C231        C  0.78528168  0.55554464  0.04089976     1.08300
C232        C  0.79108837  0.46143657  0.95417435     1.08300
O233        O  0.05795990  0.73902036  0.53095949    -0.81300
O234        O  0.94482870  0.72661808  0.48122323    -0.81400
O235        O  0.98491823  0.71821478  0.57018204    -0.81400
O236        O  0.03505054  0.70345625  0.47317733    -0.81300
O237        O  0.95845883  0.71762256  0.53297140    -0.81400
O238        O  0.06171750  0.73918804  0.47701161    -0.81300
O239        O  0.97816609  0.69747998  0.47531809    -0.81300
O240        O  0.02778044  0.70603380  0.53420395    -0.81400
C241        C  0.05259370  0.71417093  0.53572801     1.08400
C242        C  0.95290354  0.70324054  0.47323144     1.08200
C243        C  0.96312901  0.71072096  0.55812410     1.08400
C244        C  0.05816698  0.71445322  0.46994130     1.08300
O245        O  0.02918142  0.78831132  0.47288198    -0.81300
O246        O  0.93262573  0.76486493  0.52088262    -0.81400
O247        O  0.02259051  0.75743097  0.56139595    -0.81300
O248        O  0.97366450  0.74941795  0.44678209    -0.81300
O249        O  0.96592058  0.78046315  0.47872235    -0.81400
O250        O  0.02727809  0.78972961  0.53142156    -0.81300
O251        O  0.02740147  0.75381472  0.44393229    -0.81300
O252        O  0.97002320  0.76641864  0.54731555    -0.81400
Co253      Co  0.04141891  0.76387514  0.50289880     1.51500
Co254      Co  0.96570707  0.75114652  0.50679356     1.51700
Co255      Co  0.99818121  0.73424528  0.53794701     1.51600
Co256      Co  0.00369965  0.72615486  0.46242468     1.51500
O257        O  0.00511342  0.74425882  0.49961268    -1.43300
C258        C  0.03054078  0.77922089  0.44847738     1.08300
C259        C  0.94465847  0.77334071  0.54236895     1.08400
C260        C  0.02955229  0.78159335  0.55593495     1.08300
C261        C  0.96416478  0.77266804  0.45382579     1.08300
O262        O  0.04439221  0.52575898  0.77806041    -0.81300
O263        O  0.95107602  0.48164840  0.79530053    -0.81400
O264        O  0.99446283  0.54115114  0.78786767    -0.81400
O265        O  0.01553481  0.45144810  0.78630248    -0.81300
O266        O  0.95139002  0.53694296  0.77882267    -0.81400
O267        O  0.05290275  0.46755654  0.76761790    -0.81300
O268        O  0.96211429  0.44278816  0.77579997    -0.81300
O269        O  0.03194398  0.56196418  0.75508599    -0.81400
C270        C  0.04621444  0.55195402  0.77431543     1.08400
C271        C  0.95266684  0.45575513  0.79603100     1.08200
C272        C  0.97013631  0.54893414  0.79166512     1.08400
C273        C  0.04121202  0.45119892  0.78455508     1.08300
O274        O  0.03112578  0.47749252  0.70999387    -0.81300
O275        O  0.94860584  0.52019719  0.72360340    -0.81400
O276        O  0.03084498  0.52897690  0.71314454    -0.81300
O277        O  0.97273466  0.44995238  0.71795894    -0.81300
O278        O  0.93816779  0.46825770  0.73912519    -0.81400
O279        O  0.06875790  0.51217044  0.73045695    -0.81300
O280        O  0.02712766  0.44025037  0.73101753    -0.81300
O281        O  0.97936184  0.55247464  0.73051919    -0.81400
Co282      Co  0.03456037  0.49936162  0.74551114     1.51500
Co283      Co  0.95134477  0.50120793  0.75895813     1.51700
Co284      Co  0.00971146  0.53108926  0.75041878     1.51600
Co285      Co  0.99431573  0.45057581  0.75258098     1.51500
O286        O  0.99329593  0.49283420  0.75317015    -1.43300
C287        C  0.03491770  0.45223397  0.71017691     1.08300
C288        C  0.95744804  0.54381555  0.71874945     1.08400
C289        C  0.05755479  0.52699689  0.71224328     1.08300
C290        C  0.94793413  0.45759279  0.71770843     1.08300
O291        O  0.53386290  0.70556210  0.02025654    -0.81300
O292        O  0.47299784  0.70353945  0.96836144    -0.81400
O293        O  0.47364375  0.73351731  0.05737256    -0.81400
O294        O  0.52991723  0.72383414  0.95220853    -0.81300
O295        O  0.46874292  0.70217936  0.02515565    -0.81400
O296        O  0.56718180  0.71949449  0.97816706    -0.81300
O297        O  0.47916120  0.73537415  0.93880972    -0.81300
O298        O  0.52962081  0.73484273  0.05434185    -0.81400
C299        C  0.53809975  0.71178835  0.04514437     1.08400
C300        C  0.47248435  0.71085026  0.94369348     1.08200
C301        C  0.46722026  0.70940314  0.05009491     1.08400
C302        C  0.55410201  0.71365113  0.95629651     1.08300
O303        O  0.54591710  0.77055912  0.97055451    -0.81300
O304        O  0.43985253  0.75303998  0.02460039    -0.81400
O305        O  0.52537154  0.78924349  0.02944701    -0.81300
O306        O  0.47824108  0.78773849  0.96765081    -0.81300
O307        O  0.44479600  0.75759373  0.96945382    -0.81400
O308        O  0.55839973  0.76048686  0.02066665    -0.81300
O309        O  0.52058303  0.77474649  0.93295293    -0.81300
O310        O  0.46958919  0.78574956  0.03063713    -0.81400
Co311      Co  0.53604078  0.73647606  0.99427978     1.51500
Co312      Co  0.45914332  0.72931747  0.99692515     1.51700
Co313      Co  0.49941506  0.76061031  0.04044155     1.51600
Co314      Co  0.50487622  0.75718973  0.96347155     1.51500
O315        O  0.49696879  0.74578666  0.00169029    -1.43300
C316        C  0.54203445  0.78071445  0.94656193     1.08300
C317        C  0.44520377  0.77742361  0.03147778     1.08400
C318        C  0.55050174  0.78331536  0.03085192     1.08300
C319        C  0.45329204  0.78157295  0.96354451     1.08300
O320        O  0.81105713  0.30823242  0.63777027    -0.81300
O321        O  0.77193064  0.37802940  0.67233430    -0.81400
O322        O  0.82405430  0.35407890  0.67995783    -0.81400
O323        O  0.74814429  0.35870463  0.59096740    -0.81300
O324        O  0.81742417  0.39476827  0.69326507    -0.81400
O325        O  0.76544745  0.32466154  0.61350604    -0.81300
O326        O  0.74656759  0.39238967  0.63789320    -0.81300
O327        O  0.85111165  0.32571112  0.64558579    -0.81400
C328        C  0.83540591  0.30531075  0.64577086     1.08400
C329        C  0.74871780  0.38447149  0.66284260     1.08200
C330        C  0.82285420  0.37099748  0.69947212     1.08400
C331        C  0.74665844  0.33422113  0.59892437     1.08300
O332        O  0.79623160  0.34425358  0.56597314    -0.81300
O333        O  0.84209515  0.41213542  0.64941942    -0.81400
O334        O  0.85891289  0.36913146  0.60782505    -0.81300
O335        O  0.79154453  0.42588748  0.61041763    -0.81300
O336        O  0.78534772  0.42974828  0.65351741    -0.81400
O337        O  0.84437108  0.32925685  0.59343820    -0.81300
O338        O  0.79438206  0.38884849  0.57066009    -0.81300
O339        O  0.87120744  0.37903835  0.66026494    -0.81400
Co340      Co  0.80396701  0.32916557  0.60409599     1.51500
Co341      Co  0.80411059  0.39463583  0.65559326     1.51700
Co342      Co  0.83903540  0.36495047  0.64287706     1.51600
Co343      Co  0.77269052  0.38964450  0.60444561     1.51500
O344        O  0.80238625  0.36577193  0.62466079    -1.43300
C345        C  0.79619683  0.36805494  0.55554437     1.08300
C346        C  0.86633448  0.40437649  0.65698413     1.08400
C347        C  0.86347213  0.34679112  0.59535765     1.08300
C348        C  0.78816224  0.44106811  0.63111200     1.08300
O349        O  0.59036488  0.34486133  0.84936411    -0.81300
O350        O  0.66021459  0.41977902  0.79137555    -0.81400
O351        O  0.63686165  0.39229824  0.86229264    -0.81400
O352        O  0.57539046  0.38447410  0.79813224    -0.81300
O353        O  0.67605743  0.39744874  0.84079441    -0.81400
O354        O  0.57164597  0.34049205  0.79671613    -0.81300
O355        O  0.61479374  0.42135516  0.79283564    -0.81300
O356        O  0.62242570  0.34208614  0.88118725    -0.81400
C357        C  0.59725775  0.34118095  0.87465872     1.08400
C358        C  0.63765572  0.43315354  0.79189960     1.08200
C359        C  0.66112157  0.40214740  0.86174409     1.08400
C360        C  0.56035832  0.36390447  0.79697849     1.08300
O361        O  0.62432609  0.31978211  0.77743490    -0.81300
O362        O  0.68381312  0.34478210  0.81248755    -0.81400
O363        O  0.63820623  0.31307327  0.83713580    -0.81300
O364        O  0.63952343  0.39260460  0.74797310    -0.81300
O365        O  0.67190961  0.36714171  0.76486437    -0.81400
O366        O  0.59941237  0.29649651  0.82104424    -0.81300
O367        O  0.60114149  0.35036835  0.75410733    -0.81300
O368        O  0.67274555  0.34810194  0.85527612    -0.81400
Co369      Co  0.60974191  0.33345868  0.81264535     1.51500
Co370      Co  0.67059998  0.38116671  0.80247347     1.51700
Co371      Co  0.63321594  0.35454554  0.84642640     1.51600
Co372      Co  0.60890420  0.38581322  0.77571270     1.51500
O373        O  0.63136153  0.36830409  0.80712177    -1.43300
C374        C  0.61209502  0.32663145  0.75575102     1.08300
C375        C  0.68997146  0.34162165  0.83711625     1.08400
C376        C  0.62268129  0.29250733  0.83201979     1.08300
C377        C  0.66306539  0.38154200  0.74573192     1.08300
O378        O  0.62266611  0.19271587  0.68867634    -0.81300
O379        O  0.66831610  0.23706822  0.62298260    -0.81400
O380        O  0.67404964  0.14698579  0.63436234    -0.81400
O381        O  0.61250543  0.25136594  0.64311884    -0.81300
O382        O  0.68280231  0.18905002  0.64188260    -0.81400
O383        O  0.58582707  0.22593644  0.66722535    -0.81300
O384        O  0.63893542  0.25320888  0.59491362    -0.81300
O385        O  0.64472276  0.15757450  0.67409452    -0.81400
C386        C  0.63934181  0.17395929  0.69323850     1.08400
C387        C  0.66178125  0.25540275  0.60661472     1.08200
C388        C  0.69096468  0.16492226  0.64217489     1.08400
C389        C  0.60050349  0.24701025  0.66538990     1.08300
O390        O  0.56579695  0.18162182  0.63169685    -0.81300
O391        O  0.66781172  0.16374005  0.58888086    -0.81400
O392        O  0.62766783  0.11659971  0.64279220    -0.81300
O393        O  0.60575334  0.21084544  0.57283460    -0.81300
O394        O  0.65090186  0.21067252  0.57060989    -0.81400
O395        O  0.59636665  0.14396221  0.66174114    -0.81300
O396        O  0.56816177  0.22228636  0.61458348    -0.81300
O397        O  0.62905847  0.14351001  0.59484112    -0.81400
Co398      Co  0.59642304  0.18709678  0.65846985     1.51500
Co399      Co  0.66462736  0.20001225  0.60814629     1.51700
Co400      Co  0.63303399  0.15384440  0.63408269     1.51600
Co401      Co  0.60808265  0.22966457  0.60863095     1.51500
O402        O  0.62700235  0.19485790  0.62716030    -1.43300
C403        C  0.55409547  0.20166353  0.62050187     1.08300
C404        C  0.65240925  0.14370912  0.58349664     1.08400
C405        C  0.60632201  0.11963135  0.65725568     1.08300
C406        C  0.62759101  0.21023049  0.55875951     1.08300
O407        O  0.89466967  0.19093696  0.68404558    -0.81300
O408        O  0.83149425  0.11801162  0.73681465    -0.81400
O409        O  0.82161056  0.13581318  0.64650684    -0.81400
O410        O  0.89813051  0.13451169  0.75076104    -0.81300
O411        O  0.81299485  0.13718472  0.68961088    -0.81400
O412        O  0.87383155  0.16471567  0.72788323    -0.81300
O413        O  0.86089194  0.08993334  0.75342544    -0.81300
O414        O  0.85788311  0.17533739  0.66160227    -0.81400
C415        C  0.87292910  0.19545609  0.67027308     1.08400
C416        C  0.83717992  0.10087108  0.75463105     1.08200
C417        C  0.80469572  0.13953765  0.66533419     1.08400
C418        C  0.88662849  0.15800802  0.74947636     1.08300
O419        O  0.92831057  0.14863554  0.70887386    -0.81300
O420        O  0.82757436  0.08502135  0.66265619    -0.81400
O421        O  0.88338899  0.14253017  0.62675363    -0.81300
O422        O  0.88937660  0.06449464  0.70875441    -0.81300
O423        O  0.84407674  0.06497644  0.71064397    -0.81400
O424        O  0.91381799  0.14550893  0.65817431    -0.81300
O425        O  0.92806525  0.10412978  0.70742889    -0.81300
O426        O  0.86135693  0.09848176  0.63675411    -0.81400
Co427      Co  0.89018315  0.15343031  0.69235382     1.51500
Co428      Co  0.83210043  0.10286526  0.69989209     1.51700
Co429      Co  0.86062934  0.13298013  0.65728458     1.51600
Co430      Co  0.89295745  0.09971807  0.72759934     1.51500
O431        O  0.87188250  0.11716003  0.69473203    -1.43300
C432        C  0.94140946  0.12607451  0.70752651     1.08300
C433        C  0.84087292  0.08335730  0.64033949     1.08400
C434        C  0.90749248  0.14751578  0.63303114     1.08300
C435        C  0.86672697  0.05210549  0.70850606     1.08300
O436        O  0.65081537  0.14026866  0.91056392    -0.81300
O437        O  0.69012253  0.07172148  0.87758529    -0.81400
O438        O  0.64668767  0.10334620  0.85586589    -0.81400
O439        O  0.74075536  0.11765351  0.92416821    -0.81300
O440        O  0.66722906  0.07475918  0.82731420    -0.81400
O441        O  0.69697736  0.12165306  0.93158281    -0.81300
O442        O  0.73422594  0.07550436  0.88525791    -0.81300
O443        O  0.63933777  0.15684437  0.87201328    -0.81400
C444        C  0.63307301  0.15258117  0.89650710     1.08400
C445        C  0.71257039  0.06093753  0.88510723     1.08200
C446        C  0.64583211  0.08192351  0.84036058     1.08400
C447        C  0.72048185  0.11686697  0.94041720     1.08300
O448        O  0.72743016  0.17105880  0.91309232    -0.81300
O449        O  0.68631170  0.12424037  0.81241724    -0.81400
O450        O  0.68652455  0.17479953  0.84524163    -0.81300
O451        O  0.74852328  0.11664511  0.84333082    -0.81300
O452        O  0.72355859  0.08270315  0.83081454    -0.81400
O453        O  0.68000588  0.18628723  0.88787481    -0.81300
O454        O  0.75192942  0.15396795  0.87948141    -0.81300
O455        O  0.64714907  0.14517140  0.82032653    -0.81400
Co456      Co  0.68971132  0.15276734  0.90876680     1.51500
Co457      Co  0.68891634  0.09946683  0.84785358     1.51700
Co458      Co  0.66961845  0.13854401  0.85073045     1.51600
Co459      Co  0.74092020  0.11652195  0.88253100     1.51500
O460        O  0.70060061  0.12841212  0.87606900    -1.43300
C461        C  0.74687643  0.17312054  0.89571416     1.08300
C462        C  0.66471940  0.13709645  0.80321762     1.08400
C463        C  0.68025425  0.19286573  0.86290150     1.08300
C464        C  0.74584127  0.09580228  0.82890179     1.08300
O465        O  0.80678798  0.31546233  0.89136353    -0.81300
O466        O  0.88317175  0.26510636  0.82225717    -0.81400
O467        O  0.85814479  0.35094702  0.82538159    -0.81400
O468        O  0.85966575  0.24832971  0.89497446    -0.81300
O469        O  0.86043659  0.31026821  0.80917284    -0.81400
O470        O  0.82766898  0.27411293  0.87689601    -0.81300
O471        O  0.90284509  0.24500025  0.85711467    -0.81300
O472        O  0.82180192  0.32495040  0.85194936    -0.81400
C473        C  0.80153355  0.32185256  0.86760075     1.08400
C474        C  0.89392118  0.24439143  0.83250605     1.08200
C475        C  0.85412962  0.33461468  0.80594314     1.08400
C476        C  0.83517152  0.25137920  0.88587697     1.08300
O477        O  0.84745480  0.28880962  0.92899423    -0.81300
O478        O  0.90862333  0.34241662  0.83026594    -0.81400
O479        O  0.84176470  0.37235387  0.87375588    -0.81300
O480        O  0.93093925  0.28871153  0.88654758    -0.81300
O481        O  0.93293620  0.29187035  0.84159730    -0.81400
O482        O  0.84452640  0.34557738  0.90982067    -0.81300
O483        O  0.89116668  0.29126315  0.92631159    -0.81300
O484        O  0.89446846  0.35786813  0.87019599    -0.81400
Co485      Co  0.84498973  0.30595502  0.89365146     1.51500
Co486      Co  0.89503216  0.30241022  0.82851436     1.51700
Co487      Co  0.85899744  0.33916712  0.86434430     1.51600
Co488      Co  0.89468980  0.27111071  0.88943620     1.51500
O489        O  0.87638133  0.30224469  0.86592450    -1.43300
C490        C  0.86970655  0.29061966  0.94111370     1.08300
C491        C  0.90762444  0.36172290  0.84821335     1.08400
C492        C  0.83972059  0.36926474  0.89916814     1.08300
C493        C  0.94470690  0.29061420  0.86481245     1.08300
O494        O  0.30910841  0.17265621  0.60882393    -0.81300
O495        O  0.41122917  0.20867381  0.67469536    -0.81400
O496        O  0.33624531  0.14368399  0.68355175    -0.81400
O497        O  0.33966549  0.24037003  0.62737133    -0.81300
O498        O  0.36727515  0.17612080  0.69058067    -0.81400
O499        O  0.32710159  0.22072130  0.58925805    -0.81300
O500        O  0.37761793  0.23504217  0.66348094    -0.81300
O501        O  0.31498526  0.18313742  0.65183805    -0.81400
C502        C  0.29893361  0.17800024  0.63203832     1.08400
C503        C  0.39687595  0.22960135  0.67948677     1.08200
C504        C  0.34899850  0.15926304  0.69996435     1.08400
C505        C  0.32374695  0.23949183  0.60735408     1.08300
O506        O  0.37802369  0.19060595  0.57087061    -0.81300
O507        O  0.41685040  0.15455654  0.67779859    -0.81400
O508        O  0.33534311  0.13229718  0.62804726    -0.81300
O509        O  0.41876368  0.22172373  0.62105917    -0.81300
O510        O  0.42310611  0.17738740  0.62738082    -0.81400
O511        O  0.35930414  0.14426247  0.59275691    -0.81300
O512        O  0.37784812  0.23342946  0.58151768    -0.81300
O513        O  0.38323156  0.13327438  0.65658701    -0.81400
Co514      Co  0.34527664  0.18223422  0.59240497     1.51500
Co515      Co  0.39392084  0.17622318  0.65581493     1.51700
Co516      Co  0.35009598  0.16197607  0.65305697     1.51600
Co517      Co  0.37799592  0.22990882  0.62383133     1.51500
O518        O  0.36672376  0.18994764  0.62759599    -1.43300
C519        C  0.37981952  0.21478257  0.56325852     1.08300
C520        C  0.40549784  0.13234268  0.67134305     1.08400
C521        C  0.34544268  0.12640296  0.60476303     1.08300
C522        C  0.43354573  0.20009439  0.62057077     1.08300
O523        O  0.15032563  0.35311735  0.58776316    -0.81300
O524        O  0.18648879  0.43292589  0.62411475    -0.81400
O525        O  0.12904249  0.37266121  0.66100377    -0.81400
O526        O  0.21437461  0.38970694  0.57532984    -0.81300
O527        O  0.14198877  0.41094037  0.64441976    -0.81400
O528        O  0.20018899  0.34657989  0.57150237    -0.81300
O529        O  0.22983579  0.42552717  0.61856939    -0.81300
O530        O  0.12660760  0.34027508  0.62117524    -0.81400
C531        C  0.12780547  0.34385276  0.59577227     1.08400
C532        C  0.21011158  0.44201225  0.62182439     1.08200
C533        C  0.12334136  0.39697473  0.65526668     1.08400
C534        C  0.20603639  0.36971571  0.56090669     1.08300
O535        O  0.21707418  0.32309215  0.62543125    -0.81300
O536        O  0.17603857  0.38697208  0.68865662    -0.81400
O537        O  0.16631717  0.31289069  0.64555703    -0.81300
O538        O  0.24656164  0.37946351  0.64847607    -0.81300
O539        O  0.22136486  0.41095110  0.66914809    -0.81400
O540        O  0.17072522  0.30239153  0.60246480    -0.81300
O541        O  0.24396122  0.34788277  0.60119270    -0.81300
O542        O  0.17141289  0.34361353  0.67982030    -0.81400
Co543      Co  0.18316045  0.34019608  0.60862796     1.51500
Co544      Co  0.18195002  0.40783800  0.65409617     1.51700
Co545      Co  0.15977657  0.35252955  0.64350103     1.51600
Co546      Co  0.22996365  0.38478337  0.61210628     1.51500
O547        O  0.19013667  0.37649168  0.62612749    -1.43300
C548        C  0.23974401  0.32585503  0.61326341     1.08300
C549        C  0.17394513  0.36258244  0.69670580     1.08400
C550        C  0.16454501  0.29513819  0.62675371     1.08300
C551        C  0.24277627  0.39581736  0.66824631     1.08300
O552        O  0.37613441  0.30979220  0.80736448    -0.81300
O553        O  0.33566050  0.41150977  0.76914698    -0.81400
O554        O  0.32909083  0.35199424  0.83701178    -0.81400
O555        O  0.38812678  0.34027566  0.74624184    -0.81300
O556        O  0.31314432  0.37974056  0.80645743    -0.81400
O557        O  0.41779363  0.32397077  0.77539583    -0.81300
O558        O  0.34919613  0.37720900  0.74471998    -0.81300
O559        O  0.36674731  0.31999542  0.84864318    -0.81400
C560        C  0.36686076  0.30234781  0.82999810     1.08400
C561        C  0.33165915  0.39546187  0.74924885     1.08200
C562        C  0.30929341  0.36119203  0.82333005     1.08400
C563        C  0.40405378  0.32137476  0.75353924     1.08300
O564        O  0.42910424  0.37109840  0.81002181    -0.81300
O565        O  0.34779117  0.40020110  0.84964646    -0.81400
O566        O  0.40975429  0.35555849  0.85437458    -0.81300
O567        O  0.38724979  0.42050085  0.76541384    -0.81300
O568        O  0.37944419  0.42402927  0.80918955    -0.81400
O569        O  0.42634544  0.32066083  0.83134307    -0.81300
O570        O  0.42813910  0.37879163  0.76654923    -0.81300
O571        O  0.36166219  0.36843688  0.87800703    -0.81400
Co572      Co  0.40166914  0.34140593  0.80919663     1.51500
Co573      Co  0.34721253  0.40054660  0.80759378     1.51700
Co574      Co  0.36935879  0.35939025  0.84061210     1.51600
Co575      Co  0.38728734  0.37854965  0.75913153     1.51500
O576        O  0.37226635  0.36598611  0.79763678    -1.43300
C577        C  0.44166887  0.37726380  0.78859778     1.08300
C578        C  0.35121220  0.39184619  0.87431087     1.08400
C579        C  0.42399432  0.33298236  0.85413540     1.08300
C580        C  0.38578053  0.43517021  0.78717476     1.08300
O581        O  0.16072617  0.34308945  0.90996713    -0.81300
O582        O  0.07737955  0.29269696  0.84080893    -0.81400
O583        O  0.10554372  0.36032872  0.86753874    -0.81400
O584        O  0.11905571  0.29418135  0.92498656    -0.81300
O585        O  0.09992834  0.34173923  0.82674590    -0.81400
O586        O  0.16353975  0.29066415  0.92364006    -0.81300
O587        O  0.07756361  0.29418441  0.88612802    -0.81300
O588        O  0.15656262  0.37895991  0.88320055    -0.81400
C589        C  0.16240956  0.36916483  0.90651158     1.08400
C590        C  0.06457167  0.29400248  0.86365038     1.08200
C591        C  0.09494310  0.36114764  0.84365322     1.08400
C592        C  0.14169269  0.29291554  0.93769026     1.08300
O593        O  0.17730271  0.27215135  0.86880113    -0.81300
O594        O  0.15174406  0.31436975  0.81478514    -0.81400
O595        O  0.18537025  0.33751832  0.86123173    -0.81300
O596        O  0.10282283  0.24962505  0.85749132    -0.81300
O597        O  0.13045128  0.26613691  0.82726158    -0.81400
O598        O  0.20607307  0.31343857  0.89319716    -0.81300
O599        O  0.14687711  0.25067810  0.89348222    -0.81300
O600        O  0.14961633  0.35627516  0.82928623    -0.81400
Co601      Co  0.16779620  0.30760390  0.88625635     1.51500
Co602      Co  0.11610767  0.30353003  0.82953550     1.51700
Co603      Co  0.14382084  0.34529466  0.86870099     1.51600
Co604      Co  0.11275959  0.27470882  0.88956371     1.51500
O605        O  0.13078222  0.30608307  0.86810757    -1.43300
C606        C  0.16957410  0.25047067  0.88042176     1.08300
C607        C  0.15609549  0.33921807  0.81060609     1.08400
C608        C  0.20756083  0.32898362  0.87268082     1.08300
C609        C  0.11471188  0.24748602  0.83446214     1.08300
O610        O  0.18735209  0.14268996  0.68690980    -0.81300
O611        O  0.09359680  0.16650683  0.72782100    -0.81400
O612        O  0.13646619  0.16828394  0.64982366    -0.81400
O613        O  0.15108070  0.09445722  0.75632010    -0.81300
O614        O  0.13418186  0.18158415  0.69135033    -0.81400
O615        O  0.18022252  0.12049044  0.73615973    -0.81300
O616        O  0.11643711  0.14087904  0.75746549    -0.81300
O617        O  0.16799613  0.14070750  0.64666064    -0.81400
C618        C  0.18820570  0.14802861  0.66175074     1.08400
C619        C  0.10315925  0.16256126  0.75184293     1.08200
C620        C  0.14050643  0.18697974  0.66694202     1.08400
C621        C  0.17494238  0.10470138  0.75535219     1.08300
O622        O  0.15990490  0.06965357  0.71006890    -0.81300
O623        O  0.08145724  0.17604935  0.67056240    -0.81400
O624        O  0.13065358  0.09642088  0.64040717    -0.81300
O625        O  0.07514984  0.11173099  0.72971591    -0.81300
O626        O  0.07532683  0.12538076  0.68785628    -0.81400
O627        O  0.17050504  0.09209194  0.66043093    -0.81300
O628        O  0.11466107  0.07066769  0.71701744    -0.81300
O629        O  0.09419660  0.14378651  0.64149507    -0.81400
Co630      Co  0.17149948  0.10777677  0.69895447     1.51500
Co631      Co  0.10602493  0.15224095  0.69101661     1.51700
Co632      Co  0.12961087  0.13054376  0.66068014     1.51600
Co633      Co  0.11549696  0.10579125  0.73686331     1.51500
O634        O  0.13244311  0.12396674  0.70241432    -1.43300
C635        C  0.13664385  0.05771944  0.71154211     1.08300
C636        C  0.08002950  0.16563455  0.64653263     1.08400
C637        C  0.15450572  0.08666461  0.64043074     1.08300
C638        C  0.06203269  0.11794024  0.70841728     1.08300
O639        O  0.32004587  0.18395716  0.87071000    -0.81300
O640        O  0.28608680  0.07460844  0.83371621    -0.81400
O641        O  0.32058385  0.14438387  0.82912662    -0.81400
O642        O  0.25200773  0.14277809  0.88858998    -0.81300
O643        O  0.33148532  0.10254881  0.81698969    -0.81400
O644        O  0.27988746  0.17636490  0.89595043    -0.81300
O645        O  0.26487377  0.11112290  0.84780989    -0.81300
O646        O  0.36082758  0.17338560  0.85497351    -0.81400
C647        C  0.34224625  0.19105989  0.85886572     1.08400
C648        C  0.26607197  0.09136575  0.83167162     1.08200
C649        C  0.32593980  0.12691331  0.81059878     1.08400
C650        C  0.25612104  0.16796493  0.89149358     1.08300
O651        O  0.30239238  0.14314634  0.93414777    -0.81300
O652        O  0.36388045  0.08186293  0.86286216    -0.81400
O653        O  0.36672672  0.13608608  0.89702226    -0.81300
O654        O  0.27480136  0.06597152  0.88591993    -0.81300
O655        O  0.31831509  0.05622367  0.88104823    -0.81400
O656        O  0.34365902  0.16710938  0.91689163    -0.81300
O657        O  0.27862058  0.10526413  0.92740972    -0.81300
O658        O  0.37169642  0.12088905  0.84477890    -0.81400
Co659      Co  0.31228555  0.15240365  0.89627091     1.51500
Co660      Co  0.32428949  0.08140307  0.85091178     1.51700
Co661      Co  0.34152271  0.14073266  0.86399343     1.51600
Co662      Co  0.27275887  0.10726165  0.88663602     1.51500
O663        O  0.31403173  0.11408264  0.87716604    -1.43300
C664        C  0.28964627  0.12273461  0.94343407     1.08300
C665        C  0.38070929  0.09796634  0.85193662     1.08400
C666        C  0.36563027  0.15396393  0.91572603     1.08300
C667        C  0.29436598  0.04876921  0.88657409     1.08300
O668        O  0.59156917  0.83944201  0.67269929    -0.81300
O669        O  0.65321269  0.79089073  0.57259856    -0.81400
O670        O  0.65757646  0.86789032  0.62441495    -0.81400
O671        O  0.56870357  0.78829658  0.61177506    -0.81300
O672        O  0.64917835  0.84165459  0.59068795    -0.81400
O673        O  0.56780947  0.79111100  0.65645930    -0.81300
O674        O  0.60812790  0.78906106  0.57263001    -0.81300
O675        O  0.61024908  0.86277338  0.63957363    -0.81400
C676        C  0.59408318  0.86176489  0.65944582     1.08400
C677        C  0.63053820  0.79036866  0.55967050     1.08200
C678        C  0.65649234  0.86505473  0.59940048     1.08400
C679        C  0.55574395  0.79315022  0.63351656     1.08300
O680        O  0.61956417  0.76282008  0.67200426    -0.81300
O681        O  0.69597890  0.81460200  0.60586399    -0.81400
O682        O  0.64323663  0.84802343  0.68122076    -0.81300
O683        O  0.63832908  0.74677056  0.60112816    -0.81300
O684        O  0.67006840  0.76911875  0.62411258    -0.81400
O685        O  0.64177357  0.80547198  0.68745107    -0.81300
O686        O  0.59567257  0.74341214  0.64008318    -0.81300
O687        O  0.68085759  0.82685764  0.64706744    -0.81400
Co688      Co  0.60621968  0.79980188  0.66876775     1.51500
Co689      Co  0.65809106  0.80579357  0.61076892     1.51700
Co690      Co  0.64090359  0.83769002  0.64269078     1.51600
Co691      Co  0.60401243  0.76955733  0.60803283     1.51500
O692        O  0.62167235  0.80254604  0.62923419    -1.43300
C693        C  0.60795955  0.74215606  0.66308677     1.08300
C694        C  0.70062747  0.82291644  0.63014312     1.08400
C695        C  0.64678898  0.82862298  0.69672971     1.08300
C696        C  0.66243489  0.74776822  0.61120411     1.08300
O697        O  0.84428391  0.66131983  0.58888934    -0.81300
O698        O  0.79738790  0.57223235  0.65485151    -0.81400
O699        O  0.87006366  0.62878418  0.65846857    -0.81400
O700        O  0.79132121  0.60694820  0.56897662    -0.81300
O701        O  0.84976291  0.59092267  0.65272317    -0.81400
O702        O  0.79274729  0.65147260  0.56629145    -0.81300
O703        O  0.79535410  0.57143443  0.61018181    -0.81300
O704        O  0.86125846  0.66786334  0.63005213    -0.81400
C705        C  0.86424414  0.66785635  0.60434604     1.08400
C706        C  0.79648840  0.55895244  0.63255433     1.08200
C707        C  0.87162795  0.60347668  0.65928910     1.08400
C708        C  0.79222174  0.62827936  0.55497912     1.08300
O709        O  0.76839572  0.67262935  0.61581423    -0.81300
O710        O  0.81896409  0.60231057  0.69788599    -0.81400
O711        O  0.81256049  0.67331307  0.66755320    -0.81300
O712        O  0.75306389  0.60020413  0.64008650    -0.81300
O713        O  0.77587213  0.62467198  0.66990974    -0.81400
O714        O  0.81688392  0.69425445  0.62956392    -0.81300
O715        O  0.74768694  0.63764257  0.59736424    -0.81300
O716        O  0.83317597  0.64376407  0.69088584    -0.81400
Co717      Co  0.80576755  0.66526194  0.60248703     1.51500
Co718      Co  0.81251501  0.60977330  0.65958445     1.51700
Co719      Co  0.83434415  0.64538998  0.64964693     1.51600
Co720      Co  0.77457104  0.60583092  0.60568117     1.51500
O721        O  0.80813832  0.62707869  0.62229870    -1.43300
C722        C  0.74719444  0.66252742  0.60535421     1.08300
C723        C  0.82760434  0.62478988  0.70744103     1.08400
C724        C  0.81341552  0.69504334  0.65505656     1.08300
C725        C  0.75432947  0.61173978  0.66325729     1.08300
O726        O  0.66244550  0.56925631  0.83219447    -0.81300
O727        O  0.57895128  0.65030827  0.79391247    -0.81400
O728        O  0.62808039  0.64252254  0.87672001    -0.81400
O729        O  0.61292846  0.56456214  0.78418820    -0.81300
O730        O  0.59678728  0.64724972  0.84494117    -0.81400
O731        O  0.65652153  0.56199767  0.77706527    -0.81300
O732        O  0.57760147  0.60557026  0.79152487    -0.81300
O733        O  0.65858276  0.60271795  0.86194304    -0.81400
C734        C  0.66424196  0.57804431  0.85645430     1.08400
C735        C  0.56524513  0.62809463  0.79282109     1.08200
C736        C  0.60395642  0.64910083  0.87041748     1.08400
C737        C  0.63423171  0.55030356  0.78162594     1.08300
O738        O  0.67808181  0.61410667  0.76853263    -0.81300
O739        O  0.61570678  0.69121014  0.81755019    -0.81400
O740        O  0.67102108  0.65012053  0.83882055    -0.81300
O741        O  0.60424384  0.63808277  0.74965529    -0.81300
O742        O  0.63273929  0.66506801  0.77109313    -0.81400
O743        O  0.69451995  0.61604697  0.82150786    -0.81300
O744        O  0.64392432  0.59872091  0.74335137    -0.81300
O745        O  0.65096365  0.66925707  0.83703521    -0.81400
Co746      Co  0.66999183  0.59261228  0.80004061     1.51500
Co747      Co  0.61850874  0.65356113  0.80790471     1.51700
Co748      Co  0.63497487  0.62897417  0.84102427     1.51600
Co749      Co  0.61103346  0.60221807  0.76955787     1.51500
O750        O  0.63436522  0.61552406  0.80215818    -1.43300
C751        C  0.66801273  0.60909976  0.74536170     1.08300
C752        C  0.63825207  0.69214769  0.83083842     1.08400
C753        C  0.69420719  0.63841117  0.83392996     1.08300
C754        C  0.61784903  0.66011929  0.75020752     1.08300
O755        O  0.90948182  0.83082126  0.65670536    -0.81300
O756        O  0.84343262  0.92203285  0.70467562    -0.81400
O757        O  0.83693709  0.86733380  0.63218392    -0.81400
O758        O  0.92864156  0.88589172  0.71332892    -0.81300
O759        O  0.84794732  0.90427853  0.65143009    -0.81400
O760        O  0.93200282  0.84147102  0.70763813    -0.81300
O761        O  0.88801793  0.92138672  0.70858882    -0.81300
O762        O  0.86840454  0.82673061  0.63894113    -0.81400
C763        C  0.89419259  0.82481624  0.63646352     1.08400
C764        C  0.86599297  0.93449751  0.70643286     1.08200
C765        C  0.83936174  0.89248190  0.62974976     1.08400
C766        C  0.94287629  0.86458758  0.71053347     1.08300
O767        O  0.88313387  0.82008768  0.73246239    -0.81300
O768        O  0.80086938  0.89355513  0.68071878    -0.81400
O769        O  0.83028627  0.82154933  0.68647945    -0.81300
O770        O  0.85494649  0.89193487  0.74848085    -0.81300
O771        O  0.82612558  0.86926450  0.72261814    -0.81400
O772        O  0.86826694  0.79951659  0.68346428    -0.81300
O773        O  0.90021661  0.85505997  0.75408272    -0.81300
O774        O  0.80890344  0.85048210  0.67202801    -0.81400
Co775      Co  0.89588648  0.82758237  0.69503632     1.51500
Co776      Co  0.83907329  0.88501269  0.68774234     1.51700
Co777      Co  0.84915846  0.84954436  0.66644535     1.51600
Co778      Co  0.89122679  0.88682222  0.72839260     1.51500
O779        O  0.87629374  0.86641540  0.69345919    -1.43300
C780        C  0.89426413  0.82983721  0.75353697     1.08300
C781        C  0.79203683  0.86985025  0.67572520     1.08400
C782        C  0.84257530  0.79951924  0.68602695     1.08300
C783        C  0.83128866  0.88167511  0.74465295     1.08300
O784        O  0.84194313  0.66554413  0.92107106    -0.81300
O785        O  0.93520912  0.69482355  0.86668097    -0.81400
O786        O  0.90615674  0.64565450  0.86403131    -0.81400
O787        O  0.88373832  0.72014133  0.93714429    -0.81300
O788        O  0.91804388  0.66416342  0.82495172    -0.81400
O789        O  0.83916521  0.71784584  0.92986044    -0.81300
O790        O  0.93052385  0.71715100  0.90571658    -0.81300
O791        O  0.85915256  0.63393573  0.89491375    -0.81400
C792        C  0.84674119  0.64056453  0.91660446     1.08400
C793        C  0.94551423  0.70569217  0.88798990     1.08200
C794        C  0.92003250  0.64413740  0.84154745     1.08400
C795        C  0.85941860  0.71788969  0.94620902     1.08300
O796        O  0.83311764  0.72956653  0.87215662    -0.81300
O797        O  0.86429792  0.67704071  0.82554215    -0.81400
O798        O  0.82366659  0.66884291  0.86325224    -0.81300
O799        O  0.90439161  0.75065422  0.86436097    -0.81300
O800        O  0.89833174  0.72171783  0.82999991    -0.81400
O801        O  0.80154016  0.69235103  0.89559800    -0.81300
O802        O  0.85895457  0.75506074  0.89793420    -0.81300
O803        O  0.85902428  0.63453375  0.83781563    -0.81400
Co804      Co  0.83942489  0.69686047  0.89474554     1.51500
Co805      Co  0.89778605  0.68670717  0.85033070     1.51700
Co806      Co  0.86666817  0.66097585  0.86558752     1.51600
Co807      Co  0.89353483  0.73290658  0.90010444     1.51500
O808        O  0.87772345  0.69642004  0.88565719    -1.43300
C809        C  0.83733297  0.75220752  0.88388603     1.08300
C810        C  0.85732241  0.65228989  0.81920803     1.08400
C811        C  0.80082618  0.67736071  0.87439629     1.08300
C812        C  0.90262277  0.74580394  0.83874756     1.08300
O813        O  0.64987494  0.90871312  0.85519884    -0.81300
O814        O  0.68988898  0.87584594  0.92772703    -0.81400
O815        O  0.63113342  0.82986878  0.87103971    -0.81400
O816        O  0.72365915  0.92367208  0.89956736    -0.81300
O817        O  0.64613613  0.85504837  0.90472380    -0.81400
O818        O  0.69902508  0.93530967  0.86355800    -0.81300
O819        O  0.73334853  0.87437627  0.92783228    -0.81300
O820        O  0.63586905  0.86925721  0.84234581    -0.81400
C821        C  0.63149621  0.89433169  0.84386946     1.08400
C822        C  0.71142996  0.87499133  0.94125274     1.08200
C823        C  0.62728295  0.84007357  0.89458944     1.08400
C824        C  0.71145209  0.94157975  0.88533935     1.08300
O825        O  0.72450183  0.89991006  0.82234572    -0.81300
O826        O  0.68136570  0.80719665  0.88465008    -0.81400
O827        O  0.67349883  0.83785160  0.82717597    -0.81300
O828        O  0.75113212  0.85122121  0.87698973    -0.81300
O829        O  0.72581428  0.82865539  0.90571779    -0.81400
O830        O  0.67654343  0.87935640  0.81036709    -0.81300
O831        O  0.75508966  0.89983132  0.85521652    -0.81300
O832        O  0.67701655  0.81868747  0.84307411    -0.81400
Co833      Co  0.68827208  0.90318274  0.84115225     1.51500
Co834      Co  0.68701356  0.84499025  0.90230578     1.51700
Co835      Co  0.66408374  0.85085151  0.86531115     1.51600
Co836      Co  0.73594633  0.88604167  0.88799320     1.51500
O837        O  0.69859627  0.87200109  0.86901312    -1.43300
C838        C  0.74924160  0.89935843  0.83019964     1.08300
C839        C  0.67981530  0.79965170  0.85960861     1.08400
C840        C  0.67423629  0.85424059  0.80672786     1.08300
C841        C  0.74695107  0.83026829  0.89052477     1.08300
O842        O  0.33269848  0.83474619  0.58084261    -0.81300
O843        O  0.42170738  0.82176566  0.63577232    -0.81400
O844        O  0.39384047  0.86364062  0.64813401    -0.81400
O845        O  0.39563912  0.78807231  0.56832826    -0.81300
O846        O  0.40127765  0.83739275  0.68383513    -0.81400
O847        O  0.35119301  0.78408245  0.56322778    -0.81300
O848        O  0.43055214  0.78387135  0.61363452    -0.81300
O849        O  0.36463955  0.86191118  0.59654248    -0.81400
C850        C  0.34462721  0.85790057  0.58058641     1.08400
C851        C  0.43847725  0.80541095  0.62518869     1.08200
C852        C  0.40298449  0.86097498  0.67263143     1.08400
C853        C  0.37468657  0.78838093  0.55294072     1.08300
O854        O  0.32875901  0.75970264  0.61199547    -0.81300
O855        O  0.35434353  0.80412695  0.67662123    -0.81400
O856        O  0.32633377  0.85071767  0.63143599    -0.81300
O857        O  0.39364836  0.74730056  0.63805638    -0.81300
O858        O  0.40312333  0.77783974  0.67075171    -0.81400
O859        O  0.31031846  0.80938199  0.62928601    -0.81300
O860        O  0.36429205  0.74274363  0.59047262    -0.81300
O861        O  0.34875058  0.84602226  0.66772052    -0.81400
Co862      Co  0.33349892  0.79699494  0.59837036     1.51500
Co863      Co  0.38712456  0.81231521  0.65477591     1.51700
Co864      Co  0.36517263  0.84015324  0.62980864     1.51600
Co865      Co  0.39441926  0.76846487  0.60375547     1.51500
O866        O  0.36967684  0.79907130  0.62038976    -1.43300
C867        C  0.34002430  0.74007795  0.59948656     1.08300
C868        C  0.34393421  0.82650363  0.68372534     1.08400
C869        C  0.30681816  0.83438559  0.63467851     1.08300
C870        C  0.39931173  0.75326632  0.66274894     1.08300
O871        O  0.32243370  0.63086679  0.80497789    -0.81300
O872        O  0.38252615  0.67012393  0.75966844    -0.81400
O873        O  0.36363302  0.66253903  0.85037315    -0.81400
O874        O  0.36077516  0.60983649  0.74089203    -0.81300
O875        O  0.36237443  0.67956787  0.80925215    -0.81400
O876        O  0.33327347  0.58937190  0.77068811    -0.81300
O877        O  0.40873760  0.64068683  0.73934692    -0.81300
O878        O  0.33170763  0.63330760  0.84723545    -0.81400
C879        C  0.31412112  0.63707325  0.82851657     1.08400
C880        C  0.39692973  0.66367686  0.73947759     1.08200
C881        C  0.35699584  0.68165316  0.83438216     1.08400
C882        C  0.33748554  0.60028416  0.74738778     1.08300
O883        O  0.37465224  0.56804410  0.80951349    -0.81300
O884        O  0.41417389  0.66451789  0.83445850    -0.81400
O885        O  0.36078423  0.59028582  0.85694988    -0.81300
O886        O  0.43301322  0.60475654  0.77800948    -0.81300
O887        O  0.43492376  0.64974520  0.78477191    -0.81400
O888        O  0.32518827  0.57979927  0.83097431    -0.81300
O889        O  0.39037978  0.56743394  0.76785336    -0.81300
O890        O  0.40604103  0.62759378  0.85765476    -0.81400
Co891      Co  0.34988753  0.60083298  0.80694169     1.51500
Co892      Co  0.39692534  0.66307718  0.79661915     1.51700
Co893      Co  0.37163778  0.62471791  0.83712267     1.51600
Co894      Co  0.39681479  0.60681077  0.75995839     1.51500
O895        O  0.38014189  0.62474612  0.79525918    -1.43300
C896        C  0.38408872  0.55493991  0.78927383     1.08300
C897        C  0.41862779  0.64985607  0.85537268     1.08400
C898        C  0.33762945  0.57812691  0.85416452     1.08300
C899        C  0.44653666  0.62623569  0.78328796     1.08300
O900        O  0.18865945  0.68899170  0.61904221    -0.81300
O901        O  0.23202984  0.62775052  0.66657132    -0.81400
O902        O  0.16389087  0.63930568  0.67997412    -0.81400
O903        O  0.25929324  0.63009745  0.59447322    -0.81300
O904        O  0.19117304  0.60668177  0.69587537    -0.81400
O905        O  0.23889201  0.66577951  0.61233315    -0.81300
O906        O  0.25439110  0.59890044  0.64061207    -0.81300
O907        O  0.17392745  0.67195530  0.65688229    -0.81400
C908        C  0.18015871  0.69216539  0.64316194     1.08400
C909        C  0.25319987  0.61317836  0.66240552     1.08200
C910        C  0.17485340  0.62645480  0.69994324     1.08400
C911        C  0.25992160  0.65502980  0.60194912     1.08300
O912        O  0.21941681  0.64135316  0.56174355    -0.81300
O913        O  0.16183206  0.58582904  0.65367782    -0.81400
O914        O  0.14037824  0.65856185  0.61349774    -0.81300
O915        O  0.20976373  0.56870644  0.61356310    -0.81300
O916        O  0.21437908  0.57228912  0.65731221    -0.81400
O917        O  0.16669075  0.65361373  0.57724039    -0.81300
O918        O  0.21567427  0.59772880  0.56879325    -0.81300
O919        O  0.13212153  0.61589331  0.64221184    -0.81400
Co920      Co  0.20308692  0.65861415  0.59549258     1.51500
Co921      Co  0.19676605  0.60965513  0.65782008     1.51700
Co922      Co  0.16487043  0.63829035  0.63833839     1.51600
Co923      Co  0.23229806  0.60020485  0.60532341     1.51500
O924        O  0.19908587  0.62317645  0.61882707    -1.43300
C925        C  0.21810250  0.61724246  0.55264018     1.08300
C926        C  0.13661354  0.59260825  0.65108696     1.08400
C927        C  0.14365109  0.65951141  0.58791945     1.08300
C928        C  0.21387775  0.55747321  0.63600058     1.08300
O929        O  0.14912944  0.90961750  0.65479139    -0.81300
O930        O  0.07511782  0.84180749  0.71407273    -0.81400
O931        O  0.10818327  0.85353968  0.63757724    -0.81400
O932        O  0.11093889  0.92647379  0.70408443    -0.81300
O933        O  0.09515209  0.82174012  0.66615956    -0.81400
O934        O  0.15559937  0.92710916  0.70518776    -0.81300
O935        O  0.07278409  0.88647869  0.70931683    -0.81300
O936        O  0.15458395  0.87708290  0.62647734    -0.81400
C937        C  0.15541849  0.90201447  0.63069211     1.08400
C938        C  0.06126245  0.86356219  0.71033529     1.08200
C939        C  0.09316733  0.83339311  0.64294325     1.08400
C940        C  0.13295072  0.93984590  0.70484409     1.08300
O941        O  0.17396448  0.87605153  0.72542329    -0.81300
O942        O  0.14899168  0.81254399  0.69384699    -0.81400
O943        O  0.18411245  0.85528874  0.66539324    -0.81300
O944        O  0.10137915  0.86352429  0.75523451    -0.81300
O945        O  0.12957437  0.83322848  0.73952453    -0.81400
O946        O  0.19671975  0.89639405  0.68037131    -0.81300
O947        O  0.14340702  0.90091490  0.74764160    -0.81300
O948        O  0.14759052  0.81767085  0.65027366    -0.81400
Co949      Co  0.16030936  0.88933278  0.68973547     1.51500
Co950      Co  0.11334401  0.83037649  0.70305591     1.51700
Co951      Co  0.14242104  0.85671929  0.65817357     1.51600
Co952      Co  0.10823756  0.89295292  0.72646429     1.51500
O953        O  0.12529629  0.86988553  0.69469023    -1.43300
C954        C  0.16740989  0.89042212  0.74614582     1.08300
C955        C  0.15281116  0.80285421  0.67024489     1.08400
C956        C  0.20289838  0.87293405  0.67124280     1.08300
C957        C  0.11592385  0.84236649  0.75919443     1.08300
O958        O  0.18987367  0.68485527  0.86499421    -0.81300
O959        O  0.12066418  0.73589597  0.82875832    -0.81400
O960        O  0.14195952  0.64568363  0.82553446    -0.81400
O961        O  0.15629197  0.74582669  0.88880227    -0.81300
O962        O  0.13578245  0.68713387  0.81111075    -0.81400
O963        O  0.17998653  0.71255602  0.90866266    -0.81300
O964        O  0.10495311  0.75594416  0.86513547    -0.81300
O965        O  0.17917024  0.64570771  0.85105858    -0.81400
C966        C  0.19762814  0.66344605  0.85325865     1.08400
C967        C  0.11294141  0.75732731  0.84059335     1.08200
C968        C  0.14249451  0.66263391  0.80656816     1.08400
C969        C  0.17851457  0.73661124  0.89883434     1.08300
O970        O  0.13579838  0.67342847  0.92472150    -0.81300
O971        O  0.08856452  0.66237476  0.83538654    -0.81400
O972        O  0.15163885  0.62859331  0.89380985    -0.81300
O973        O  0.08212294  0.71518804  0.90082393    -0.81300
O974        O  0.07197308  0.71167023  0.85671585    -0.81400
O975        O  0.18577218  0.65234560  0.91099688    -0.81300
O976        O  0.13056652  0.71699757  0.93116176    -0.81300
O977        O  0.10759912  0.63220530  0.86194912    -0.81400
Co978      Co  0.16123717  0.67914663  0.89304642     1.51500
Co979      Co  0.10636728  0.69922968  0.83624594     1.51700
Co980      Co  0.14035375  0.65462377  0.86430833     1.51600
Co981      Co  0.11939194  0.73012716  0.89449636     1.51500
O982        O  0.13119504  0.69620974  0.87076682    -1.43300
C983        C  0.13163881  0.69333458  0.94068088     1.08300
C984        C  0.09028161  0.63808393  0.84383188     1.08400
C985        C  0.17403791  0.62930022  0.90730137     1.08300
C986        C  0.06465218  0.71198369  0.88182622     1.08300
O987        O  0.32240058  0.87740081  0.80386042    -0.81300
O988        O  0.28218406  0.82360590  0.90610946    -0.81400
O989        O  0.35189194  0.80549623  0.84343225    -0.81400
O990        O  0.25610630  0.87421805  0.83611612    -0.81300
O991        O  0.31510740  0.80507666  0.86908097    -0.81400
O992        O  0.27846032  0.90997248  0.82356202    -0.81300
O993        O  0.25666364  0.83618486  0.87210033    -0.81300
O994        O  0.31339213  0.83502820  0.81544304    -0.81400
C995        C  0.31764027  0.85260973  0.79705299     1.08400
C996        C  0.26102950  0.82025383  0.89139433     1.08200
C997        C  0.33369249  0.79212143  0.85564740     1.08400
C998        C  0.25677072  0.89559443  0.82262544     1.08300
O999        O  0.31226532  0.92425236  0.87015355    -0.81300
O1000       O  0.34005146  0.82064105  0.91631255    -0.81400
O1001       O  0.36458170  0.85838994  0.83041421    -0.81300
O1002       O  0.27120223  0.87387011  0.91588424    -0.81300
O1003       O  0.31602963  0.87024734  0.91978209    -0.81400
O1004       O  0.35524676  0.89611617  0.85090405    -0.81300
O1005       O  0.26865246  0.91580574  0.87780048    -0.81300
O1006       O  0.36091416  0.84281135  0.88362579    -0.81400
Co1007     Co  0.31664467  0.89971383  0.83880420     1.51500
Co1008     Co  0.31723375  0.84083531  0.89206393     1.51700
Co1009     Co  0.33385393  0.83930210  0.85033091     1.51600
Co1010     Co  0.26574009  0.87453999  0.87458492     1.51500
O1011       O  0.30548213  0.86744139  0.86279501    -1.43300
C1012       C  0.28910473  0.93189299  0.87870423     1.08300
C1013       C  0.36221907  0.82919825  0.90608587     1.08400
C1014       C  0.37238554  0.88180263  0.83794521     1.08300
C1015       C  0.29274843  0.87370174  0.93075118     1.08300
O1016       O  0.19324161  0.63972691  0.30958375    -0.81300
O1017       O  0.22997877  0.67245173  0.41528730    -0.81400
O1018       O  0.18621215  0.68541013  0.34568242    -0.81400
O1019       O  0.25174690  0.62547574  0.33944828    -0.81300
O1020       O  0.18624938  0.69459600  0.38935778    -0.81400
O1021       O  0.22294648  0.59626018  0.32223591    -0.81300
O1022       O  0.25668107  0.65704594  0.38253764    -0.81300
O1023       O  0.15484695  0.65818186  0.31792686    -0.81400
C1024       C  0.17260720  0.65309079  0.30085695     1.08400
C1025       C  0.25035329  0.67544058  0.39949412     1.08200
C1026       C  0.18782230  0.70284021  0.36469755     1.08400
C1027       C  0.24538391  0.60899344  0.32086129     1.08300
O1028       O  0.18777354  0.58093354  0.36672907    -0.81300
O1029       O  0.15299950  0.64598983  0.40712695    -0.81400
O1030       O  0.14195541  0.61823492  0.34633054    -0.81300
O1031       O  0.23971550  0.61486411  0.41900326    -0.81300
O1032       O  0.19679284  0.62391005  0.42741973    -0.81400
O1033       O  0.16562537  0.59195605  0.31751459    -0.81300
O1034       O  0.23248072  0.57981146  0.37295438    -0.81300
O1035       O  0.13924503  0.67020688  0.37417880    -0.81400
Co1036     Co  0.18954567  0.61203906  0.34090881     1.51500
Co1037     Co  0.19235730  0.65732438  0.40695443     1.51700
Co1038     Co  0.16740645  0.65111599  0.35392187     1.51600
Co1039     Co  0.24218910  0.62025232  0.37797563     1.51500
O1040       O  0.20334924  0.63671974  0.37087456    -1.43300
C1041       C  0.20958999  0.56732820  0.37088184     1.08300
C1042       C  0.13533348  0.66206568  0.39764065     1.08400
C1043       C  0.14287273  0.59887191  0.32823218     1.08300
C1044       C  0.21951741  0.61521388  0.43536817     1.08300
O1045       O  0.32727526  0.58109072  0.16225392    -0.81300
O1046       O  0.43192519  0.65651263  0.20910404    -0.81400
O1047       O  0.38566863  0.65298792  0.13105117    -0.81400
O1048       O  0.38822523  0.57459025  0.22939992    -0.81300
O1049       O  0.41859697  0.64549686  0.15834802    -0.81400
O1050       O  0.37623787  0.56990071  0.18614303    -0.81300
O1051       O  0.43030900  0.61291785  0.22148668    -0.81300
O1052       O  0.35134997  0.61070945  0.13726954    -0.81400
C1053       C  0.33573746  0.58948933  0.13909251     1.08400
C1054       C  0.44375812  0.63398377  0.21479079     1.08200
C1055       C  0.41088530  0.65098074  0.13442429     1.08400
C1056       C  0.38372511  0.55946011  0.20873877     1.08300
O1057       O  0.33385796  0.58957358  0.22195991    -0.81300
O1058       O  0.40182164  0.69692292  0.17632790    -0.81400
O1059       O  0.32474590  0.65187961  0.15463277    -0.81300
O1060       O  0.39967625  0.65192978  0.25102797    -0.81300
O1061       O  0.37836157  0.67815762  0.22186103    -0.81400
O1062       O  0.31869801  0.62878117  0.19080932    -0.81300
O1063       O  0.35492939  0.61742323  0.25120815    -0.81300
O1064       O  0.35889764  0.68487441  0.16796505    -0.81400
Co1065     Co  0.35004921  0.60159037  0.18651332     1.51500
Co1066     Co  0.39600845  0.66061925  0.18960510     1.51700
Co1067     Co  0.36264113  0.64324446  0.16190006     1.51600
Co1068     Co  0.39239605  0.61484332  0.23584289     1.51500
O1069       O  0.37867492  0.62647158  0.19832921    -1.43300
C1070       C  0.33436493  0.60321777  0.24423196     1.08300
C1071       C  0.37716693  0.70370050  0.17049231     1.08400
C1072       C  0.30877389  0.64380745  0.17235180     1.08300
C1073       C  0.38986967  0.67488890  0.24475142     1.08300
O1074       O  0.40692019  0.84806542  0.31522614    -0.81300
O1075       O  0.36678440  0.82084934  0.42298491    -0.81400
O1076       O  0.36381387  0.87412326  0.39221791    -0.81400
O1077       O  0.42558293  0.78358377  0.37754746    -0.81300
O1078       O  0.32930635  0.84892419  0.40432751    -0.81400
O1079       O  0.43073964  0.81933676  0.35275886    -0.81300
O1080       O  0.38764868  0.78291635  0.41860290    -0.81300
O1081       O  0.39827953  0.87557680  0.34958882    -0.81400
C1082       C  0.40994247  0.87118809  0.32693232     1.08400
C1083       C  0.37909288  0.80176647  0.43400025     1.08200
C1084       C  0.34273131  0.87096829  0.40616825     1.08400
C1085       C  0.44106960  0.80130775  0.36753265     1.08300
O1086       O  0.41188170  0.78992052  0.30961784    -0.81300
O1087       O  0.32001060  0.80996622  0.35828072    -0.81400
O1088       O  0.35534904  0.85552992  0.31497090    -0.81300
O1089       O  0.34451208  0.76677196  0.38099407    -0.81300
O1090       O  0.31969781  0.79179499  0.40987562    -0.81400
O1091       O  0.35989127  0.81146966  0.31267506    -0.81300
O1092       O  0.38328974  0.76868973  0.33703316    -0.81300
O1093       O  0.31902140  0.85405914  0.35639746    -0.81400
Co1094     Co  0.39473421  0.81397868  0.33481068     1.51500
Co1095     Co  0.34531808  0.81358353  0.39003056     1.51700
Co1096     Co  0.36036163  0.86223029  0.35458963     1.51600
Co1097     Co  0.38434783  0.78124172  0.37727880     1.51500
O1098       O  0.37580624  0.82512360  0.36796530    -1.43300
C1099       C  0.40030413  0.76796682  0.31683723     1.08300
C1100       C  0.30659819  0.83142948  0.35402164     1.08400
C1101       C  0.35088674  0.83345083  0.30250982     1.08300
C1102       C  0.32364476  0.76936018  0.39726197     1.08300
O1103       O  0.11040104  0.67475981  0.18540431    -0.81300
O1104       O  0.17229790  0.71619410  0.08761989    -0.81400
O1105       O  0.17870908  0.64045082  0.14351080    -0.81400
O1106       O  0.11383381  0.75007349  0.14972865    -0.81300
O1107       O  0.18615972  0.68191033  0.13042540    -0.81400
O1108       O  0.08512157  0.72254761  0.17050553    -0.81300
O1109       O  0.15712198  0.74141473  0.12020733    -0.81300
O1110       O  0.15289182  0.68019089  0.17215261    -0.81400
C1111       C  0.13580877  0.67635508  0.19094831     1.08400
C1112       C  0.17334858  0.73842915  0.10083943     1.08200
C1113       C  0.19543477  0.65976698  0.14126714     1.08400
C1114       C  0.09851001  0.74466719  0.16960146     1.08300
O1115       O  0.06372752  0.69492305  0.12262263    -0.81300
O1116       O  0.17855988  0.66224341  0.07990019    -0.81400
O1117       O  0.12378849  0.63314689  0.15411818    -0.81300
O1118       O  0.12278720  0.72558598  0.07173889    -0.81300
O1119       O  0.12670975  0.68123745  0.07223310    -0.81400
O1120       O  0.08716433  0.64892270  0.13600976    -0.81300
O1121       O  0.07782945  0.73422120  0.10636463    -0.81300
O1122       O  0.14632939  0.63911625  0.09945088    -0.81400
Co1123     Co  0.08909103  0.68591215  0.15157489     1.51500
Co1124     Co  0.15396503  0.68226702  0.10240910     1.51700
Co1125     Co  0.14755796  0.66226582  0.13597647     1.51600
Co1126     Co  0.11832124  0.73465616  0.11289458     1.51500
O1127       O  0.12245148  0.69497517  0.12707004    -1.43300
C1128       C  0.05929055  0.71667998  0.11012814     1.08300
C1129       C  0.16588960  0.64005303  0.08140379     1.08400
C1130       C  0.09818038  0.63092276  0.15027540     1.08300
C1131       C  0.12313794  0.70273961  0.05891202     1.08300
O1132       O  0.18754463  0.86022902  0.30483938    -0.81300
O1133       O  0.09361902  0.82537730  0.27813216    -0.81400
O1134       O  0.14738297  0.83004690  0.34932809    -0.81400
O1135       O  0.13790344  0.89961348  0.23783006    -0.81300
O1136       O  0.14101022  0.81559725  0.30855475    -0.81400
O1137       O  0.17121277  0.87664045  0.25631974    -0.81300
O1138       O  0.10528096  0.85399528  0.24498566    -0.81300
O1139       O  0.17485880  0.86205527  0.34721048    -0.81400
C1140       C  0.19291481  0.85560610  0.32951392     1.08400
C1141       C  0.09789166  0.83054274  0.25303313     1.08200
C1142       C  0.15082062  0.81096608  0.33216073     1.08400
C1143       C  0.16122748  0.88820847  0.23590327     1.08300
O1144       O  0.15253502  0.93000702  0.27989986    -0.81300
O1145       O  0.09159597  0.81772273  0.33601981    -0.81400
O1146       O  0.13674900  0.90188402  0.35828758    -0.81300
O1147       O  0.06930211  0.88519719  0.27884857    -0.81300
O1148       O  0.07665937  0.86644395  0.31846215    -0.81400
O1149       O  0.16996575  0.91182913  0.32985270    -0.81300
O1150       O  0.10744520  0.92756986  0.28070599    -0.81300
O1151       O  0.10258836  0.85283309  0.36168541    -0.81400
Co1152     Co  0.16747839  0.89301474  0.29282348     1.51500
Co1153     Co  0.10984615  0.84278249  0.31175664     1.51700
Co1154     Co  0.13448128  0.86738709  0.33843138     1.51600
Co1155     Co  0.10675050  0.89025869  0.26390692     1.51500
O1156       O  0.13016923  0.87406980  0.29633776    -1.43300
C1157       C  0.12908416  0.94189825  0.28130756     1.08300
C1158       C  0.08961572  0.83007875  0.35897899     1.08400
C1159       C  0.15787278  0.91548044  0.35271400     1.08300
C1160       C  0.06060878  0.87739998  0.30158651     1.08300
O1161       O  0.34402228  0.90899560  0.14661088    -0.81300
O1162       O  0.28175690  0.84613162  0.06038431    -0.81400
O1163       O  0.36234282  0.84545919  0.10636954    -0.81400
O1164       O  0.28723317  0.92434611  0.10664101    -0.81300
O1165       O  0.33464957  0.84267204  0.07177410    -0.81400
O1166       O  0.28993583  0.92190728  0.15101812    -0.81300
O1167       O  0.28456753  0.88977728  0.06434622    -0.81300
O1168       O  0.37520537  0.87743200  0.14546569    -0.81400
C1169       C  0.36958426  0.90199595  0.14974579     1.08400
C1170       C  0.28249409  0.86921217  0.04923857     1.08200
C1171       C  0.35820306  0.83993663  0.08148423     1.08400
C1172       C  0.28784335  0.93616070  0.12960777     1.08300
O1173       O  0.27247433  0.86827546  0.16510681    -0.81300
O1174       O  0.32369926  0.80803511  0.11815708    -0.81400
O1175       O  0.33397038  0.85304836  0.17044376    -0.81300
O1176       O  0.24455305  0.85453475  0.09345736    -0.81300
O1177       O  0.26937770  0.82255920  0.11272062    -0.81400
O1178       O  0.31697245  0.89010633  0.19068777    -0.81300
O1179       O  0.24754190  0.89240130  0.13638307    -0.81300
O1180       O  0.33835207  0.83406026  0.15210887    -0.81400
Co1181     Co  0.30796285  0.88507553  0.15325140     1.51500
Co1182     Co  0.30234776  0.83249201  0.09318078     1.51700
Co1183     Co  0.34007228  0.86948618  0.13075467     1.51600
Co1184     Co  0.26834657  0.88910601  0.10111949     1.51500
O1185       O  0.30197278  0.86808933  0.11552002    -1.43300
C1186       C  0.25005706  0.88024680  0.15901348     1.08300
C1187       C  0.33567210  0.81043527  0.14092396     1.08400
C1188       C  0.32720447  0.86633432  0.19287480     1.08300
C1189       C  0.24747548  0.82961905  0.10117058     1.08300
O1190       O  0.83807642  0.59924971  0.32555058    -0.81300
O1191       O  0.79438429  0.65853586  0.42576955    -0.81400
O1192       O  0.87541883  0.66418321  0.37348149    -0.81400
O1193       O  0.79461802  0.57591481  0.38405905    -0.81300
O1194       O  0.84622775  0.65422578  0.40579359    -0.81400
O1195       O  0.78790396  0.57576709  0.33976860    -0.81300
O1196       O  0.79954516  0.61479739  0.42287277    -0.81300
O1197       O  0.85838837  0.61164546  0.36429393    -0.81400
C1198       C  0.85851930  0.59799779  0.34208486     1.08400
C1199       C  0.79693542  0.63579517  0.43743943     1.08200
C1200       C  0.87063965  0.66147477  0.39887766     1.08400
C1201       C  0.79105217  0.56286534  0.36201268     1.08300
O1202       O  0.76063509  0.62624121  0.32772506    -0.81300
O1203       O  0.81717255  0.70119915  0.39787506    -0.81400
O1204       O  0.84949960  0.65074689  0.32327129    -0.81300
O1205       O  0.75148079  0.64452570  0.39956861    -0.81300
O1206       O  0.77185086  0.67653406  0.37564886    -0.81400
O1207       O  0.80666023  0.64933994  0.31213111    -0.81300
O1208       O  0.74608816  0.60263004  0.36260610    -0.81300
O1209       O  0.82710045  0.68803664  0.35646680    -0.81400
Co1210     Co  0.79864308  0.61387687  0.32846852     1.51500
Co1211     Co  0.80871786  0.66456548  0.38781359     1.51700
Co1212     Co  0.84071180  0.64810429  0.36326394     1.51600
Co1213     Co  0.77519142  0.61061697  0.39104961     1.51500
O1214       O  0.80310434  0.62979148  0.36654127    -1.43300
C1215       C  0.74138694  0.61513704  0.34049888     1.08300
C1216       C  0.82346718  0.70761507  0.37378610     1.08400
C1217       C  0.83092797  0.65427274  0.30563305     1.08300
C1218       C  0.75111761  0.66829203  0.38886507     1.08300
O1219       O  0.64507534  0.81037591  0.31376723    -0.81300
O1220       O  0.67423862  0.77203895  0.37376261    -0.81400
O1221       O  0.67092640  0.86329057  0.36250886    -0.81400
O1222       O  0.59997784  0.75142411  0.36120752    -0.81300
O1223       O  0.68680802  0.82236423  0.35713986    -0.81400
O1224       O  0.62446898  0.76983918  0.33016341    -0.81300
O1225       O  0.64273650  0.75286885  0.39888198    -0.81300
O1226       O  0.64121556  0.85206161  0.32146876    -0.81400
C1227       C  0.64698547  0.83343456  0.30486988     1.08400
C1228       C  0.66602721  0.75181204  0.38699497     1.08200
C1229       C  0.69113512  0.84749244  0.35740966     1.08400
C1230       C  0.61263617  0.74922571  0.33847138     1.08300
O1231       O  0.57307854  0.79724947  0.34637389    -0.81300
O1232       O  0.66776326  0.84628881  0.40950729    -0.81400
O1233       O  0.61399757  0.88338415  0.35349437    -0.81300
O1234       O  0.61574389  0.79833901  0.42796274    -0.81300
O1235       O  0.66021532  0.79341257  0.42772697    -0.81400
O1236       O  0.59396588  0.84758503  0.33238675    -0.81300
O1237       O  0.57485054  0.79910101  0.39074508    -0.81300
O1238       O  0.62574416  0.86015822  0.40188677    -0.81400
Co1239     Co  0.61110445  0.80668521  0.33405905     1.51500
Co1240     Co  0.66970604  0.80837783  0.39022924     1.51700
Co1241     Co  0.63064139  0.85053036  0.36282283     1.51600
Co1242     Co  0.60990212  0.77854947  0.39290976     1.51500
O1243       O  0.63165079  0.80955121  0.37135215    -1.43300
C1244       C  0.56090525  0.79907759  0.36910917     1.08300
C1245       C  0.64864103  0.86395982  0.41353814     1.08400
C1246       C  0.59527748  0.87393312  0.33785299     1.08300
C1247       C  0.63790885  0.79525975  0.44090733     1.08300
O1248       O  0.68682808  0.63953339  0.19313374    -0.81300
O1249       O  0.62599984  0.67224523  0.22702318    -0.81400
O1250       O  0.64532060  0.67673467  0.16703067    -0.81400
O1251       O  0.63473887  0.60111941  0.25755463    -0.81300
O1252       O  0.60717059  0.69661153  0.17998959    -0.81400
O1253       O  0.67004925  0.62244232  0.24062099    -0.81300
O1254       O  0.59922904  0.64417839  0.24884706    -0.81300
O1255       O  0.67552335  0.63451774  0.15082714    -0.81400
C1256       C  0.69329949  0.64075087  0.16856239     1.08400
C1257       C  0.61241565  0.66664397  0.24842916     1.08200
C1258       C  0.63098117  0.69878038  0.16993783     1.08400
C1259       C  0.65760224  0.61310001  0.26085612     1.08300
O1260       O  0.65543868  0.57032204  0.21749086    -0.81300
O1261       O  0.59524732  0.65194964  0.15095053    -0.81400
O1262       O  0.63151829  0.59706939  0.14690187    -0.81300
O1263       O  0.57429456  0.61266823  0.20365442    -0.81300
O1264       O  0.57493400  0.65698731  0.20330003    -0.81400
O1265       O  0.67065217  0.58733385  0.16720205    -0.81300
O1266       O  0.61088375  0.57135017  0.21184659    -0.81300
O1267       O  0.62984706  0.64762929  0.12248206    -0.81400
Co1268     Co  0.66854686  0.60636775  0.20433105     1.51500
Co1269     Co  0.61353928  0.65996531  0.19000032     1.51700
Co1270     Co  0.63536972  0.63564691  0.15897178     1.51600
Co1271     Co  0.60601810  0.60815065  0.22810496     1.51500
O1272       O  0.63113641  0.62350329  0.19814952    -1.43300
C1273       C  0.63319437  0.55802176  0.21245189     1.08300
C1274       C  0.60509109  0.65441167  0.12634688     1.08400
C1275       C  0.65345086  0.58291364  0.14785042     1.08300
C1276       C  0.56150273  0.63499745  0.20347203     1.08300
O1277       O  0.68966159  0.85971718  0.18505326    -0.81300
O1278       O  0.72478824  0.82936507  0.12775937    -0.81400
O1279       O  0.66500487  0.82550532  0.14238315    -0.81400
O1280       O  0.75501839  0.90268331  0.13735114    -0.81300
O1281       O  0.67948604  0.80429761  0.10516700    -0.81400
O1282       O  0.73794505  0.87743461  0.16917543    -0.81300
O1283       O  0.74846805  0.85840884  0.10316247    -0.81300
O1284       O  0.64741067  0.86521857  0.17297173    -0.81400
C1285       C  0.66475722  0.85731066  0.19063244     1.08400
C1286       C  0.74730741  0.83675363  0.11733576     1.08200
C1287       C  0.66852626  0.80331199  0.12871717     1.08400
C1288       C  0.75729093  0.89165017  0.16065114     1.08300
O1289       O  0.71409359  0.93056650  0.15551902    -0.81300
O1290       O  0.65167530  0.84954066  0.09172373    -0.81400
O1291       O  0.64594989  0.90453222  0.12933936    -0.81300
O1292       O  0.70477154  0.88843216  0.07430483    -0.81300
O1293       O  0.70541279  0.84450019  0.07394464    -0.81400
O1294       O  0.66402783  0.91255061  0.16992457    -0.81300
O1295       O  0.70962199  0.92903976  0.11060694    -0.81300
O1296       O  0.62098558  0.85401080  0.12409758    -0.81400
Co1297     Co  0.70130795  0.89367716  0.16806432     1.51500
Co1298     Co  0.68932557  0.84132224  0.11195545     1.51700
Co1299     Co  0.65716750  0.86600612  0.13275012     1.51600
Co1300     Co  0.72722233  0.89358539  0.10723512     1.51500
O1301       O  0.69633847  0.87770449  0.13040964    -1.43300
C1302       C  0.71157079  0.94240543  0.13259030     1.08300
C1303       C  0.62631845  0.84722050  0.09966065     1.08400
C1304       C  0.64618343  0.91817206  0.15151738     1.08300
C1305       C  0.70501856  0.86667030  0.06073600     1.08300
O1306       O  0.92328865  0.66911948  0.15496797    -0.81300
O1307       O  0.83732244  0.72029112  0.08033738    -0.81400
O1308       O  0.86153102  0.63793880  0.11394385    -0.81400
O1309       O  0.92717321  0.72182685  0.10051913    -0.81300
O1310       O  0.84250375  0.66850266  0.08962309    -0.81400
O1311       O  0.93795375  0.72151763  0.14394475    -0.81300
O1312       O  0.88135473  0.72084086  0.07265524    -0.81300
O1313       O  0.88671584  0.64391712  0.16060868    -0.81400
C1314       C  0.91240180  0.64681575  0.16160368     1.08400
C1315       C  0.85723675  0.71910084  0.06370984     1.08200
C1316       C  0.84915578  0.64351590  0.09239565     1.08400
C1317       C  0.94479919  0.72204739  0.11900826     1.08300
O1318       O  0.88866232  0.73955325  0.17317458    -0.81300
O1319       O  0.80117570  0.69504779  0.11601329    -0.81400
O1320       O  0.84236427  0.67673989  0.17379488    -0.81300
O1321       O  0.85717539  0.75940366  0.11001205    -0.81300
O1322       O  0.83194745  0.73556148  0.13764270    -0.81400
O1323       O  0.88071670  0.69020615  0.19160664    -0.81300
O1324       O  0.90535069  0.76245375  0.13932904    -0.81300
O1325       O  0.82033685  0.66256844  0.14107765    -0.81400
Co1326     Co  0.90501424  0.70499549  0.16241955     1.51500
Co1327     Co  0.83971236  0.70149787  0.11667744     1.51700
Co1328     Co  0.86191348  0.66802379  0.14015720     1.51600
Co1329     Co  0.89182182  0.73846892  0.10701177     1.51500
O1330       O  0.87987004  0.70343406  0.12741643    -1.43300
C1331       C  0.89896219  0.76096710  0.16454263     1.08300
C1332       C  0.79899200  0.67498585  0.13196588     1.08400
C1333       C  0.85628380  0.68236346  0.19444406     1.08300
C1334       C  0.83631120  0.75759280  0.12504220     1.08300
O1335       O  0.85920883  0.82188022  0.31519801    -0.81300
O1336       O  0.83151449  0.88214104  0.26371119    -0.81400
O1337       O  0.82566258  0.86918265  0.35474827    -0.81400
O1338       O  0.89422450  0.85961670  0.25113747    -0.81300
O1339       O  0.81514756  0.86545597  0.31216370    -0.81400
O1340       O  0.90466533  0.82861459  0.28239798    -0.81300
O1341       O  0.86372686  0.90627520  0.24606340    -0.81300
O1342       O  0.85289401  0.83669625  0.35606098    -0.81400
C1343       C  0.84982131  0.81764683  0.33894206     1.08400
C1344       C  0.84010572  0.89599535  0.24419816     1.08200
C1345       C  0.80757631  0.86410688  0.33655300     1.08400
C1346       C  0.90015567  0.83531776  0.25754615     1.08300
O1347       O  0.92614116  0.86823425  0.32385174    -0.81300
O1348       O  0.83125496  0.91773303  0.33738483    -0.81400
O1349       O  0.89854199  0.85576286  0.36860270    -0.81300
O1350       O  0.89508270  0.93010550  0.28958646    -0.81300
O1351       O  0.84969478  0.93416692  0.28783422    -0.81400
O1352       O  0.90909186  0.82115662  0.34104255    -0.81300
O1353       O  0.93235008  0.88770495  0.28461609    -0.81300
O1354       O  0.86373087  0.90762730  0.36681335    -0.81400
Co1355     Co  0.89148900  0.84692087  0.31751495     1.51500
Co1356     Co  0.83440206  0.89820113  0.30033961     1.51700
Co1357     Co  0.86671517  0.87322646  0.34622815     1.51600
Co1358     Co  0.89461485  0.89455837  0.27135153     1.51500
O1359       O  0.87162411  0.87929643  0.30412138    -1.43300
C1360       C  0.94179397  0.87915820  0.30678506     1.08300
C1361       C  0.84242415  0.92124161  0.36084994     1.08400
C1362       C  0.91058388  0.83233343  0.36469203     1.08300
C1363       C  0.87358751  0.94458768  0.28919163     1.08300
O1364       O  0.15841014  0.41170930  0.33118470    -0.81300
O1365       O  0.19769341  0.34965136  0.43073710    -0.81400
O1366       O  0.11573182  0.35389980  0.37331481    -0.81400
O1367       O  0.20554891  0.43327701  0.39213324    -0.81300
O1368       O  0.14301983  0.35244640  0.40938899    -0.81400
O1369       O  0.20735151  0.43267730  0.34738043    -0.81300
O1370       O  0.20078428  0.39396183  0.43041535    -0.81300
O1371       O  0.13808728  0.40394191  0.37037204    -0.81400
C1372       C  0.13864332  0.41636065  0.34771109     1.08400
C1373       C  0.19967676  0.37206080  0.44341949     1.08200
C1374       C  0.11892479  0.34860230  0.39817350     1.08400
C1375       C  0.20649052  0.44616814  0.36992009     1.08300
O1376       O  0.23200942  0.37768370  0.33636249    -0.81300
O1377       O  0.17528467  0.30834164  0.40342518    -0.81400
O1378       O  0.14305425  0.36334796  0.32945588    -0.81300
O1379       O  0.24373466  0.36113416  0.40317830    -0.81300
O1380       O  0.21927530  0.33138709  0.37965745    -0.81400
O1381       O  0.18504160  0.35933321  0.31777810    -0.81300
O1382       O  0.24954710  0.40530921  0.36567309    -0.81300
O1383       O  0.16106707  0.32325100  0.36326967    -0.81400
Co1384     Co  0.19571982  0.39410764  0.33531502     1.51500
Co1385     Co  0.18297450  0.34431871  0.39284795     1.51700
Co1386     Co  0.15174130  0.36562605  0.36917201     1.51600
Co1387     Co  0.22239721  0.39692047  0.39654857     1.51500
O1388       O  0.19036667  0.37980513  0.37352826    -1.43300
C1389       C  0.25045083  0.39408616  0.34223277     1.08300
C1390       C  0.16569038  0.30322193  0.38001045     1.08400
C1391       C  0.16025765  0.35716265  0.31138416     1.08300
C1392       C  0.24118953  0.33748932  0.39215507     1.08300
O1393       O  0.42497133  0.32897667  0.17561025    -0.81300
O1394       O  0.37912730  0.43447865  0.20404328    -0.81400
O1395       O  0.34631223  0.37580736  0.14165473    -0.81400
O1396       O  0.42008422  0.38662908  0.24013387    -0.81300
O1397       O  0.36652416  0.41091267  0.15850346    -0.81400
O1398       O  0.42410601  0.38091104  0.19564136    -0.81300
O1399       O  0.37873183  0.42647358  0.24750917    -0.81300
O1400       O  0.39864393  0.35503673  0.15100926    -0.81400
C1401       C  0.41928119  0.33835838  0.15236224     1.08400
C1402       C  0.38125253  0.44321389  0.22790673     1.08200
C1403       C  0.35298373  0.40065140  0.13943335     1.08400
C1404       C  0.43441011  0.38748271  0.21837349     1.08300
O1405       O  0.41487970  0.33437726  0.22947564    -0.81300
O1406       O  0.31377460  0.39190146  0.18069942    -0.81400
O1407       O  0.35645526  0.31964942  0.15299237    -0.81300
O1408       O  0.34074978  0.38209340  0.25561502    -0.81300
O1409       O  0.32713839  0.41656831  0.23043724    -0.81400
O1410       O  0.37409584  0.31598557  0.19436718    -0.81300
O1411       O  0.37862483  0.34426684  0.25238314    -0.81300
O1412       O  0.32363455  0.34875430  0.18705375    -0.81400
Co1413     Co  0.39854066  0.35056958  0.19486687     1.51500
Co1414     Co  0.34802647  0.41162229  0.19401668     1.51700
Co1415     Co  0.36148432  0.35262005  0.17278147     1.51600
Co1416     Co  0.37911994  0.38415673  0.24614110     1.51500
O1417       O  0.36934415  0.37805147  0.20547331    -1.43300
C1418       C  0.39983644  0.32986911  0.24992755     1.08300
C1419       C  0.30625955  0.36708850  0.18088841     1.08400
C1420       C  0.36300536  0.30482710  0.17310303     1.08300
C1421       C  0.32495967  0.40189141  0.25188022     1.08300
O1422       O  0.36731400  0.19213528  0.31479081    -0.81300
O1423       O  0.32306035  0.22836284  0.41433283    -0.81400
O1424       O  0.31646439  0.19034995  0.34605784    -0.81400
O1425       O  0.37832146  0.24451800  0.34417904    -0.81300
O1426       O  0.30432935  0.18196268  0.38811956    -0.81400
O1427       O  0.41229261  0.21981344  0.33102143    -0.81300
O1428       O  0.34244686  0.25238242  0.38220288    -0.81300
O1429       O  0.34459039  0.15379688  0.31509060    -0.81400
C1430       C  0.35284811  0.17428062  0.30204075     1.08400
C1431       C  0.32291926  0.24882232  0.39833093     1.08200
C1432       C  0.29767235  0.18536519  0.36314707     1.08400
C1433       C  0.39908375  0.24206173  0.32929487     1.08300
O1434       O  0.42338502  0.18452460  0.37551514    -0.81300
O1435       O  0.35081392  0.15077514  0.40974530    -0.81400
O1436       O  0.38474908  0.14264498  0.35148857    -0.81300
O1437       O  0.37971766  0.23808589  0.42627378    -0.81300
O1438       O  0.37076723  0.19539022  0.43439372    -0.81400
O1439       O  0.41455961  0.16214362  0.32471852    -0.81300
O1440       O  0.42077723  0.22842204  0.38455407    -0.81300
O1441       O  0.33159412  0.13972915  0.37125653    -0.81400
Co1442     Co  0.39359123  0.18668155  0.34784299     1.51500
Co1443     Co  0.33948094  0.18971917  0.40958398     1.51700
Co1444     Co  0.35176745  0.16979437  0.34997021     1.51600
Co1445     Co  0.37959978  0.23782185  0.38395249     1.51500
O1446       O  0.36564738  0.19844690  0.37749268    -1.43300
C1447       C  0.43536411  0.20681341  0.38133839     1.08300
C1448       C  0.33640036  0.13411582  0.39628332     1.08400
C1449       C  0.40429253  0.14025389  0.33379317     1.08300
C1450       C  0.37691657  0.21864676  0.44324259     1.08300
O1451       O  0.15289627  0.09926183  0.35808918    -0.81300
O1452       O  0.06773053  0.15581584  0.29757185    -0.81400
O1453       O  0.08687526  0.13407276  0.35751176    -0.81400
O1454       O  0.11410078  0.07937397  0.27374393    -0.81300
O1455       O  0.08333163  0.17500882  0.33947850    -0.81400
O1456       O  0.12754136  0.07230062  0.31567263    -0.81300
O1457       O  0.06976108  0.11386105  0.28457967    -0.81300
O1458       O  0.13408527  0.12483661  0.39038788    -0.81400
C1459       C  0.14838571  0.10387446  0.38367676     1.08400
C1460       C  0.05563543  0.13418890  0.29146856     1.08200
C1461       C  0.07461952  0.15706590  0.35629354     1.08400
C1462       C  0.12016283  0.06272828  0.29287741     1.08300
O1463       O  0.16482416  0.09626865  0.27709402    -0.81300
O1464       O  0.13897222  0.18703513  0.31922208    -0.81400
O1465       O  0.16755827  0.14690212  0.35348034    -0.81300
O1466       O  0.10073040  0.16181902  0.25945145    -0.81300
O1467       O  0.09570610  0.19895506  0.28550124    -0.81400
O1468       O  0.18349003  0.13008725  0.31636785    -0.81300
O1469       O  0.14353941  0.12873248  0.25604800    -0.81300
O1470       O  0.12845969  0.17583449  0.36094780    -0.81400
Co1471     Co  0.15429581  0.10226813  0.31621067     1.51500
Co1472     Co  0.10629032  0.16773892  0.30541036     1.51700
Co1473     Co  0.12717843  0.13564459  0.35291789     1.51600
Co1474     Co  0.10780812  0.12125375  0.27240165     1.51500
O1475       O  0.12260351  0.13137826  0.31215723    -1.43300
C1476       C  0.16317734  0.11238298  0.25728581     1.08300
C1477       C  0.13802100  0.19329421  0.34445279     1.08400
C1478       C  0.18680950  0.14564277  0.33652361     1.08300
C1479       C  0.09689454  0.18809730  0.26163829     1.08300
O1480       O  0.32481048  0.12471163  0.19350822    -0.81300
O1481       O  0.27197037  0.16831259  0.09625216    -0.81400
O1482       O  0.35462815  0.17721098  0.14403068    -0.81400
O1483       O  0.24423339  0.09803742  0.15150048    -0.81300
O1484       O  0.31305901  0.18795957  0.13227145    -0.81400
O1485       O  0.27101772  0.11447796  0.18386285    -0.81300
O1486       O  0.24315649  0.14378101  0.12038704    -0.81300
O1487       O  0.31156222  0.16038975  0.17361563    -0.81400
C1488       C  0.32092576  0.14968840  0.19453968     1.08400
C1489       C  0.24824884  0.16484702  0.10662658     1.08200
C1490       C  0.33673285  0.19539767  0.14218181     1.08400
C1491       C  0.24763708  0.10778290  0.17527510     1.08300
O1492       O  0.28640663  0.06621787  0.15499764    -0.81300
O1493       O  0.32758380  0.17584263  0.08090085    -0.81400
O1494       O  0.35916717  0.12508925  0.15504636    -0.81300
O1495       O  0.26698423  0.11507588  0.07598177    -0.81300
O1496       O  0.31001139  0.12520807  0.07598093    -0.81400
O1497       O  0.34072644  0.08444561  0.15524775    -0.81300
O1498       O  0.27852992  0.07065066  0.11121094    -0.81300
O1499       O  0.35198140  0.14464334  0.10184538    -0.81400
Co1500     Co  0.30519469  0.09954261  0.16831719     1.51500
Co1501     Co  0.30931594  0.15306825  0.10629331     1.51700
Co1502     Co  0.32992514  0.14878153  0.13812505     1.51600
Co1503     Co  0.26174943  0.10808036  0.11605399     1.51500
O1504       O  0.29870550  0.12246823  0.13280836    -1.43300
C1505       C  0.28400082  0.05560382  0.13160501     1.08300
C1506       C  0.35072770  0.16430877  0.08426863     1.08400
C1507       C  0.36148134  0.09953932  0.15809384     1.08300
C1508       C  0.28865381  0.11937378  0.06290313     1.08300
O1509       O  0.09858180  0.35892130  0.14680464    -0.81300
O1510       O  0.15927582  0.28649349  0.07339084    -0.81400
O1511       O  0.14113092  0.35746802  0.09799971    -0.81400
O1512       O  0.07439332  0.30191590  0.11067197    -0.81300
O1513       O  0.17846136  0.33268552  0.09325217    -0.81400
O1514       O  0.07407685  0.30648524  0.15463533    -0.81300
O1515       O  0.11445790  0.29262366  0.07101420    -0.81300
O1516       O  0.13630205  0.38320732  0.14735407    -0.81400
C1517       C  0.11059271  0.38258981  0.14962441     1.08400
C1518       C  0.13755571  0.29048628  0.05911047     1.08200
C1519       C  0.16455234  0.35367543  0.08718771     1.08400
C1520       C  0.06086336  0.30432534  0.13261975     1.08300
O1521       O  0.12249120  0.28354896  0.17472404    -0.81300
O1522       O  0.18811492  0.30925412  0.14769082    -0.81400
O1523       O  0.14418667  0.33921467  0.17898058    -0.81300
O1524       O  0.13697030  0.24765570  0.10017842    -0.81300
O1525       O  0.16659492  0.26262590  0.12909372    -0.81400
O1526       O  0.10239895  0.33181385  0.19391792    -0.81300
O1527       O  0.09956611  0.25861807  0.14443923    -0.81300
O1528       O  0.17995011  0.35169516  0.14063545    -0.81400
Co1529     Co  0.11262406  0.31942369  0.15879126     1.51500
Co1530     Co  0.17097960  0.29794083  0.11219133     1.51700
Co1531     Co  0.13954396  0.34643090  0.13684024     1.51600
Co1532     Co  0.10761556  0.27751145  0.10788860     1.51500
O1533       O  0.13275512  0.30760548  0.12457354    -1.43300
C1534       C  0.10915117  0.26216272  0.16870784     1.08300
C1535       C  0.19529468  0.33372698  0.15082304     1.08400
C1536       C  0.12695748  0.33801353  0.19892212     1.08300
C1537       C  0.16004425  0.24476750  0.11209493     1.08300
O1538       O  0.62857704  0.31377980  0.18660730    -0.81300
O1539       O  0.66485647  0.37168265  0.22247090    -0.81400
O1540       O  0.67512292  0.35242248  0.17032265    -0.81400
O1541       O  0.59188404  0.36655755  0.25021565    -0.81300
O1542       O  0.69374208  0.39193249  0.17953582    -0.81400
O1543       O  0.60833722  0.32967532  0.23093605    -0.81300
O1544       O  0.63694065  0.39966550  0.24389084    -0.81300
O1545       O  0.63364477  0.32501587  0.14480905    -0.81400
C1546       C  0.63326547  0.30689496  0.16268658     1.08400
C1547       C  0.65868404  0.38540520  0.24359089     1.08200
C1548       C  0.69688876  0.36681810  0.17439764     1.08400
C1549       C  0.59901235  0.34146375  0.25162707     1.08300
O1550       O  0.55935086  0.35203803  0.20491343    -0.81300
O1551       O  0.65043248  0.40593334  0.14789636    -0.81400
O1552       O  0.60208791  0.37119840  0.13411821    -0.81300
O1553       O  0.60959838  0.42846608  0.19949320    -0.81300
O1554       O  0.65378263  0.42469540  0.20072609    -0.81400
O1555       O  0.58208284  0.33607520  0.15367422    -0.81300
O1556       O  0.56645499  0.39624901  0.20466969    -0.81300
O1557       O  0.65656695  0.37065370  0.12106033    -0.81400
Co1558     Co  0.59588875  0.33541167  0.19363515     1.51500
Co1559     Co  0.65549055  0.38665995  0.18595791     1.51700
Co1560     Co  0.63704158  0.36473231  0.15439082     1.51600
Co1561     Co  0.60231635  0.39609245  0.22203987     1.51500
O1562       O  0.61724520  0.37092315  0.19100139    -1.43300
C1563       C  0.55043845  0.37645737  0.20603907     1.08300
C1564       C  0.65830813  0.39616001  0.12447503     1.08400
C1565       C  0.58568702  0.35113164  0.13261589     1.08300
C1566       C  0.63273960  0.43965996  0.19883033     1.08300
O1567       O  0.58934593  0.16078052  0.34284687    -0.81300
O1568       O  0.65260160  0.21510461  0.42728532    -0.81400
O1569       O  0.63164172  0.14556941  0.39127486    -0.81400
O1570       O  0.57011976  0.20967978  0.38670834    -0.81300
O1571       O  0.66920574  0.16717323  0.40433968    -0.81400
O1572       O  0.56839238  0.21231246  0.34246730    -0.81300
O1573       O  0.60761693  0.21221222  0.42591568    -0.81300
O1574       O  0.62189590  0.12991533  0.33729118    -0.81400
C1575       C  0.59654471  0.13621708  0.33604670     1.08400
C1576       C  0.62955347  0.21286938  0.43943357     1.08200
C1577       C  0.65353167  0.14656328  0.40586708     1.08400
C1578       C  0.55597557  0.20997900  0.36525331     1.08300
O1579       O  0.62109634  0.23545475  0.32571006    -0.81300
O1580       O  0.68504235  0.19579704  0.35467707    -0.81400
O1581       O  0.63967332  0.17714274  0.31400043    -0.81300
O1582       O  0.63453320  0.25843104  0.40240569    -0.81300
O1583       O  0.66594328  0.24240654  0.37547537    -0.81400
O1584       O  0.60022198  0.19206929  0.29793098    -0.81300
O1585       O  0.59710129  0.25601530  0.35795700    -0.81300
O1586       O  0.67258258  0.15357788  0.35239848    -0.81400
Co1587     Co  0.60780926  0.19852604  0.33592145     1.51500
Co1588     Co  0.66589239  0.20519712  0.38897433     1.51700
Co1589     Co  0.63224641  0.16365679  0.35436153     1.51600
Co1590     Co  0.60382267  0.23169477  0.39151801     1.51500
O1591       O  0.62774926  0.20146322  0.37235283    -1.43300
C1592       C  0.60817302  0.25635966  0.33422768     1.08300
C1593       C  0.69122505  0.17124980  0.35027844     1.08400
C1594       C  0.62428084  0.18322054  0.29320052     1.08300
C1595       C  0.65841479  0.26034673  0.39216396     1.08300
O1596       O  0.81351119  0.36246147  0.30834273    -0.81300
O1597       O  0.76880431  0.33627014  0.40727166    -0.81400
O1598       O  0.84444371  0.33507031  0.35887809    -0.81400
O1599       O  0.74262391  0.40512410  0.34889682    -0.81300
O1600       O  0.80510112  0.31785082  0.37043444    -0.81400
O1601       O  0.76501942  0.38133656  0.31833781    -0.81300
O1602       O  0.73984647  0.36088242  0.38248430    -0.81300
O1603       O  0.84785673  0.35234074  0.33475290    -0.81400
C1604       C  0.83558947  0.35003123  0.31150184     1.08400
C1605       C  0.74502287  0.33992161  0.39663396     1.08200
C1606       C  0.82845256  0.31402914  0.36050577     1.08400
C1607       C  0.74309341  0.39197705  0.32654706     1.08300
O1608       O  0.78830043  0.43079517  0.34153594    -0.81300
O1609       O  0.82536941  0.32765287  0.42086948    -0.81400
O1610       O  0.87211749  0.38998386  0.36130240    -0.81300
O1611       O  0.76674523  0.38889995  0.42443455    -0.81300
O1612       O  0.80941288  0.37909620  0.42262823    -0.81400
O1613       O  0.84212323  0.40879280  0.33271248    -0.81300
O1614       O  0.78264048  0.42945236  0.38582056    -0.81300
O1615       O  0.85361262  0.35734312  0.40211306    -0.81400
Co1616     Co  0.80159354  0.39404119  0.32907330     1.51500
Co1617     Co  0.80608612  0.34910502  0.39485021     1.51700
Co1618     Co  0.83616058  0.37635160  0.36815941     1.51600
Co1619     Co  0.76155703  0.39477252  0.38394867     1.51500
O1620       O  0.79478511  0.37359961  0.36621042    -1.43300
C1621       C  0.78728263  0.44300998  0.36440794     1.08300
C1622       C  0.84896287  0.33859765  0.42002072     1.08400
C1623       C  0.86710118  0.40653191  0.34209342     1.08300
C1624       C  0.78875662  0.38429529  0.43691845     1.08300
O1625       O  0.66335533  0.08198317  0.15273036    -0.81300
O1626       O  0.71205341  0.15568715  0.06759991    -0.81400
O1627       O  0.64785705  0.13574848  0.09438714    -0.81400
O1628       O  0.71557436  0.07274520  0.10675002    -0.81300
O1629       O  0.67017591  0.17040260  0.08087479    -0.81400
O1630       O  0.71863754  0.07011051  0.15080297    -0.81300
O1631       O  0.71272400  0.11124523  0.07018126    -0.81300
O1632       O  0.63776526  0.11909824  0.14732954    -0.81400
C1633       C  0.64009136  0.09362265  0.15280695     1.08400
C1634       C  0.71279112  0.13244883  0.05599304     1.08200
C1635       C  0.64957663  0.15530829  0.07778997     1.08400
C1636       C  0.71711189  0.05867617  0.12783436     1.08300
O1637       O  0.72985307  0.12182227  0.17395245    -0.81300
O1638       O  0.68040515  0.19274416  0.12423542    -0.81400
O1639       O  0.67735967  0.16207075  0.16663336    -0.81300
O1640       O  0.75514649  0.14298434  0.09782482    -0.81300
O1641       O  0.73439128  0.17898912  0.11453270    -0.81400
O1642       O  0.67461229  0.12520103  0.18857596    -0.81300
O1643       O  0.75506508  0.10537573  0.13966966    -0.81300
O1644       O  0.63872690  0.17658596  0.13261506    -0.81400
Co1645     Co  0.69687949  0.10229335  0.16298799     1.51500
Co1646     Co  0.70000772  0.16067514  0.10686193     1.51700
Co1647     Co  0.66415201  0.14651126  0.13035489     1.51600
Co1648     Co  0.73171649  0.10920013  0.10537865     1.51500
O1649       O  0.69714369  0.12346375  0.12607363    -1.43300
C1650       C  0.75264449  0.11423605  0.16425132     1.08300
C1651       C  0.65538538  0.19660760  0.13170991     1.08400
C1652       C  0.67124079  0.15029029  0.18828492     1.08300
C1653       C  0.75521214  0.16839065  0.10352068     1.08300
O1654       O  0.90112988  0.15909253  0.34744644    -0.81300
O1655       O  0.85016945  0.07017562  0.28038445    -0.81400
O1656       O  0.83568435  0.11808000  0.35929902    -0.81400
O1657       O  0.92444728  0.11842272  0.29597872    -0.81300
O1658       O  0.83773121  0.08222734  0.33290291    -0.81400
O1659       O  0.92171972  0.16237511  0.29582402    -0.81300
O1660       O  0.89343607  0.07614749  0.28896867    -0.81300
O1661       O  0.86575990  0.15739378  0.37476061    -0.81400
C1662       C  0.89074389  0.16253074  0.37171280     1.08400
C1663       C  0.87353292  0.06056928  0.28545438     1.08200
C1664       C  0.83225501  0.09271224  0.35587111     1.08400
C1665       C  0.93630772  0.14083990  0.29745229     1.08300
O1666       O  0.86812976  0.17449978  0.27127796    -0.81300
O1667       O  0.80582907  0.12735279  0.31411470    -0.81400
O1668       O  0.84733947  0.18247105  0.33245648    -0.81300
O1669       O  0.86342219  0.10323073  0.24371874    -0.81300
O1670       O  0.82682005  0.12077143  0.26382141    -0.81400
O1671       O  0.88539332  0.20139466  0.31627910    -0.81300
O1672       O  0.89725301  0.14732669  0.25058662    -0.81300
O1673       O  0.82719626  0.16301434  0.33164042    -0.81400
Co1674     Co  0.88192824  0.16416835  0.30838051     1.51500
Co1675     Co  0.83266597  0.10237209  0.29810083     1.51700
Co1676     Co  0.86243407  0.14200697  0.33951137     1.51600
Co1677     Co  0.89321670  0.11220319  0.27195934     1.51500
O1678       O  0.86697733  0.12610458  0.30190259    -1.43300
C1679       C  0.88226565  0.16866444  0.25021548     1.08300
C1680       C  0.80502423  0.15073742  0.32457895     1.08400
C1681       C  0.86212677  0.20428303  0.32751437     1.08300
C1682       C  0.83835735  0.11106258  0.24296892     1.08300
O1683       O  0.89940623  0.30853372  0.20159558    -0.81300
O1684       O  0.83159040  0.26370882  0.12239491    -0.81400
O1685       O  0.82525592  0.34947549  0.15388026    -0.81400
O1686       O  0.89810526  0.25108553  0.14009568    -0.81300
O1687       O  0.81520516  0.30701920  0.14951880    -0.81400
O1688       O  0.87257064  0.27143668  0.17107736    -0.81300
O1689       O  0.86365314  0.25114768  0.09433835    -0.81300
O1690       O  0.86007000  0.32640977  0.18876729    -0.81400
C1691       C  0.87558885  0.31632819  0.20790493     1.08400
C1692       C  0.84038274  0.24704824  0.10504567     1.08200
C1693       C  0.80820330  0.33043824  0.15709071     1.08400
C1694       C  0.88427452  0.25012996  0.16243110     1.08300
O1695       O  0.92688099  0.29151505  0.15804724    -0.81300
O1696       O  0.82519074  0.34147045  0.10139827    -0.81400
O1697       O  0.87418662  0.37589098  0.16649514    -0.81300
O1698       O  0.88900787  0.29964146  0.07450377    -0.81300
O1699       O  0.84392193  0.29585406  0.07342771    -0.81400
O1700       O  0.90798367  0.34575033  0.16074578    -0.81300
O1701       O  0.92685095  0.29932180  0.11482014    -0.81300
O1702       O  0.86377991  0.36233691  0.11248678    -0.81400
Co1703     Co  0.88893025  0.30727455  0.16425910     1.51500
Co1704     Co  0.83109329  0.30213054  0.11286709     1.51700
Co1705     Co  0.86548876  0.34242996  0.14854814     1.51600
Co1706     Co  0.89331033  0.27757090  0.10756565     1.51500
O1707       O  0.86936658  0.30631109  0.12809359    -1.43300
C1708       C  0.94024376  0.29620586  0.13651858     1.08300
C1709       C  0.84091875  0.36207764  0.09948724     1.08400
C1710       C  0.89966324  0.37024091  0.16730407     1.08300
C1711       C  0.86689839  0.29842018  0.06103627     1.08300
O1712       O  0.78698007  0.03001709  0.52696446    -0.81300
O1713       O  0.78363199  0.97145612  0.47411309    -0.81400
O1714       O  0.77154012  0.97028248  0.54322281    -0.81400
O1715       O  0.75091370  0.02985688  0.43947379    -0.81300
O1716       O  0.77347939  0.93499875  0.51519812    -0.81400
O1717       O  0.78485418  0.03462856  0.46884970    -0.81300
O1718       O  0.75136574  0.97510645  0.44283570    -0.81300
O1719       O  0.75695386  0.02108618  0.55867935    -0.81400
C1720       C  0.78041226  0.02982206  0.55215370     1.08400
C1721       C  0.77603432  0.96884705  0.44943071     1.08200
C1722       C  0.78175152  0.94628240  0.53719913     1.08400
C1723       C  0.77572502  0.03637428  0.44453423     1.08300
O1724       O  0.73267305  0.06327357  0.47398384    -0.81300
O1725       O  0.72213497  0.95489372  0.52701006    -0.81400
O1726       O  0.70411503  0.02237075  0.53629713    -0.81300
O1727       O  0.69809880  0.97673292  0.47194810    -0.81300
O1728       O  0.72918504  0.94460710  0.47622737    -0.81400
O1729       O  0.73322433  0.05612894  0.52864328    -0.81300
O1730       O  0.69929670  0.03371945  0.46825766    -0.81300
O1731       O  0.72140168  0.97645668  0.56684558    -0.81400
Co1732     Co  0.75928047  0.04328591  0.49953135     1.51500
Co1733     Co  0.75447502  0.96668127  0.50179002     1.51700
Co1734     Co  0.73553083  0.99514081  0.53559094     1.51600
Co1735     Co  0.72522450  0.00371960  0.45845262     1.51500
O1736       O  0.74281403  0.00552272  0.49630085    -1.43300
C1737       C  0.70808616  0.05794204  0.46647540     1.08300
C1738       C  0.71453438  0.95593022  0.55220287     1.08400
C1739       C  0.71036753  0.04772948  0.53807628     1.08300
C1740       C  0.70452604  0.95176162  0.47016690     1.08300
C1741       C  0.82615373  0.08230105  0.40605887    -0.03000
C1742       C  0.82043904  0.07576959  0.37842290     0.06600
C1743       C  0.80211761  0.05402221  0.37277771    -0.03200
C1744       C  0.78904721  0.04005352  0.39434491    -0.03200
C1745       C  0.79287271  0.04834121  0.42199214     0.06800
C1746       C  0.81158973  0.06975756  0.42743307    -0.03400
Br1747     Br  0.81559404  0.08486042  0.46363696    -0.01900
Br1748     Br  0.85520031  0.10751160  0.41528458    -0.02000
Br1749     Br  0.76587478  0.00938348  0.38526001    -0.01900
Br1750     Br  0.79324796  0.04370561  0.33550380    -0.01900
C1751       C  0.85814870  0.20132830  0.21719071    -0.03000
C1752       C  0.88237194  0.18740376  0.22547071     0.06600
C1753       C  0.90638888  0.19109696  0.20923453    -0.03200
C1754       C  0.90691600  0.21050528  0.18776039    -0.03200
C1755       C  0.88306681  0.22538630  0.18065799     0.06800
C1756       C  0.85838064  0.21926148  0.19456922    -0.03400
Br1757     Br  0.82408725  0.23407499  0.18130511    -0.01900
Br1758     Br  0.82363917  0.19447214  0.23521046    -0.02000
Br1759     Br  0.94102586  0.21773177  0.16915768    -0.01900
Br1760     Br  0.93927422  0.17001302  0.21578539    -0.01900
C1761       C  0.82280907  0.12224512  0.19610129    -0.03000
C1762       C  0.82033202  0.10609970  0.21942482     0.06600
C1763       C  0.79580927  0.09146261  0.22389059    -0.03200
C1764       C  0.77389258  0.09364113  0.20542696    -0.03200
C1765       C  0.77581829  0.11166346  0.18326706     0.06800
C1766       C  0.79966730  0.12710225  0.17979773    -0.03400
Br1767     Br  0.79782214  0.16006474  0.15945515    -0.01900
Br1768     Br  0.85736584  0.13810081  0.18660259    -0.02000
Br1769     Br  0.74038174  0.07384186  0.21230154    -0.01900
Br1770     Br  0.79134383  0.06942499  0.25612908    -0.01900
C1771       C  0.80651566  0.17770388  0.09696397    -0.03000
C1772       C  0.77871908  0.18638666  0.09570637     0.06600
C1773       C  0.77340623  0.21347684  0.08746994    -0.03200
C1774       C  0.79489065  0.23249291  0.08676684    -0.03200
C1775       C  0.82142584  0.22513507  0.09588999     0.06800
C1776       C  0.82759826  0.19733375  0.09943517    -0.03400
Br1777     Br  0.86403510  0.18645062  0.11017568    -0.01900
Br1778     Br  0.81614568  0.13957338  0.09461209    -0.02000
Br1779     Br  0.78807442  0.26837859  0.07234735    -0.01900
Br1780     Br  0.73732013  0.22419401  0.07464462    -0.01900
C1781       C  0.87431089  0.32709052  0.28467116    -0.03000
C1782       C  0.84592428  0.33252513  0.28841027     0.06600
C1783       C  0.82739278  0.32357719  0.26767766    -0.03200
C1784       C  0.83740625  0.31429216  0.24232093    -0.03200
C1785       C  0.86565584  0.31449319  0.23688535     0.06800
C1786       C  0.88378939  0.31612916  0.25954207    -0.03400
Br1787     Br  0.92143038  0.30355506  0.25676937    -0.01900
Br1788     Br  0.90124918  0.33795841  0.31157881    -0.02000
Br1789     Br  0.81272601  0.29778938  0.21636848    -0.01900
Br1790     Br  0.78797207  0.32476689  0.27232472    -0.01900
C1791       C  0.81835311  0.26872163  0.33717474    -0.03000
C1792       C  0.83717573  0.28639950  0.35044862     0.06600
C1793       C  0.86421865  0.27691040  0.35524248    -0.03200
C1794       C  0.87204496  0.25018520  0.34788718    -0.03200
C1795       C  0.85304523  0.23237709  0.33515752     0.06800
C1796       C  0.82647625  0.24216174  0.32902868    -0.03400
Br1797     Br  0.80200491  0.22052482  0.30691827    -0.01900
Br1798     Br  0.78148155  0.28072492  0.32896950    -0.02000
Br1799     Br  0.90903971  0.23800471  0.35661192    -0.01900
Br1800     Br  0.89086261  0.29940250  0.37350992    -0.01900
C1801       C  0.76887313  0.16591838  0.35772314    -0.03000
C1802       C  0.77689812  0.16110056  0.33041597     0.06600
C1803       C  0.75621527  0.15667745  0.31039701    -0.03200
C1804       C  0.72827747  0.15632691  0.31776610    -0.03200
C1805       C  0.72030655  0.16395607  0.34428301     0.06800
C1806       C  0.74076141  0.16714927  0.36460043    -0.03400
Br1807     Br  0.73065580  0.16683433  0.40258186    -0.01900
Br1808     Br  0.79609674  0.16763770  0.38640779    -0.02000
Br1809     Br  0.70165405  0.14022968  0.29344933    -0.01900
Br1810     Br  0.76612123  0.15024896  0.27268435    -0.01900
C1811       C  0.66303430  0.18573255  0.25819126    -0.03000
C1812       C  0.63517154  0.18015308  0.26432442     0.06600
C1813       C  0.61839964  0.17015374  0.24279274    -0.03200
C1814       C  0.62991920  0.16309664  0.21709233    -0.03200
C1815       C  0.65857292  0.16449505  0.21264148     0.06800
C1816       C  0.67493927  0.17655098  0.23321173    -0.03400
Br1817     Br  0.71392930  0.17924594  0.22762583    -0.01900
Br1818     Br  0.68431124  0.20826554  0.28277818    -0.02000
Br1819     Br  0.60585280  0.15183565  0.18791424    -0.01900
Br1820     Br  0.57951905  0.16522756  0.24792438    -0.01900
C1821       C  0.68721108  0.10563748  0.46424460    -0.03000
C1822       C  0.69106675  0.07956510  0.45237839     0.06600
C1823       C  0.68157500  0.07542176  0.42527468    -0.03200
C1824       C  0.66969615  0.09714587  0.41019445    -0.03200
C1825       C  0.66367870  0.12264893  0.42274594     0.06800
C1826       C  0.67319673  0.12659833  0.44994637    -0.03400
Br1827     Br  0.66945447  0.16149646  0.46748844    -0.01900
Br1828     Br  0.70217139  0.11332941  0.49990386    -0.02000
Br1829     Br  0.66844482  0.09367089  0.37101351    -0.01900
Br1830     Br  0.68753300  0.04071447  0.40733878    -0.01900
C1831       C  0.67334144  0.30872686  0.40532677    -0.03000
C1832       C  0.67941441  0.28092057  0.40098946     0.24600
C1833       C  0.70718264  0.27248604  0.40276516    -0.03200
C1834       C  0.72863445  0.29150893  0.40256327    -0.03200
C1835       C  0.72258874  0.31967568  0.40128104     0.06800
C1836       C  0.69475967  0.32817347  0.40455563    -0.03400
Br1837     Br  0.68560309  0.36629256  0.40906874    -0.01900
Br1838     Br  0.63612067  0.32013431  0.41292655    -0.02000
Br1839     Br  0.76600452  0.27785168  0.40306191    -0.01900
Br1840     Br  0.71607505  0.23464863  0.40817584    -0.01900
C1841       C  0.74642916  0.36552167  0.18992803    -0.03000
C1842       C  0.72481881  0.35422673  0.17402237     0.06600
C1843       C  0.73050712  0.33127902  0.15713469    -0.03200
C1844       C  0.75741411  0.32098715  0.15520077    -0.03200
C1845       C  0.77960206  0.33567888  0.16680707     0.06800
C1846       C  0.77378688  0.35690568  0.18564199    -0.03400
Br1847     Br  0.80313534  0.37371661  0.20634798    -0.01900
Br1848     Br  0.73900924  0.39209494  0.21847211    -0.02000
Br1849     Br  0.76270940  0.28630036  0.13683810    -0.01900
Br1850     Br  0.70274039  0.31469669  0.13396933    -0.01900
C1851       C  0.66118581  0.26506626  0.16657523    -0.03000
C1852       C  0.63773620  0.27813092  0.15626788     0.06600
C1853       C  0.61756202  0.26290809  0.14224153    -0.03200
C1854       C  0.62289103  0.23585142  0.13452285    -0.03200
C1855       C  0.64803103  0.22379080  0.14181935     0.06800
C1856       C  0.66700624  0.23829837  0.15847373    -0.03400
Br1857     Br  0.70137092  0.22245724  0.17058520    -0.01900
Br1858     Br  0.68440322  0.28309909  0.19334233    -0.02000
Br1859     Br  0.59626016  0.21615191  0.11279962    -0.01900
Br1860     Br  0.58114013  0.27709945  0.13725461    -0.01900
C1861       C  0.61181197  0.32740667  0.30003830    -0.03000
C1862       C  0.59569873  0.32361332  0.27636765     0.06600
C1863       C  0.58192496  0.29836785  0.27317600    -0.03200
C1864       C  0.58511054  0.27724617  0.29254698    -0.03200
C1865       C  0.60331915  0.28007987  0.31498828     0.06800
C1866       C  0.61698871  0.30534580  0.31805428    -0.03400
Br1867     Br  0.64653178  0.30849743  0.34348418    -0.01900
Br1868     Br  0.62710502  0.36271441  0.30764517    -0.02000
Br1869     Br  0.56514447  0.24387910  0.28710488    -0.01900
Br1870     Br  0.55883035  0.29222626  0.24150227    -0.01900
C1871       C  0.69112788  0.36286784  0.27671445    -0.03000
C1872       C  0.67799734  0.38673868  0.26721988     0.06600
C1873       C  0.68385361  0.41205241  0.28026919    -0.03200
C1874       C  0.70492310  0.41383610  0.29998214    -0.03200
C1875       C  0.71863513  0.39010931  0.30862586     0.06800
C1876       C  0.71059199  0.36452547  0.29800116    -0.03400
Br1877     Br  0.72508026  0.33157556  0.31388238    -0.01900
Br1878     Br  0.68123240  0.32754344  0.26204588    -0.02000
Br1879     Br  0.71642019  0.44915790  0.31348677    -0.01900
Br1880     Br  0.66373978  0.44486876  0.27152560    -0.01900
C1881       C  0.01502299  0.28866618  0.11266331    -0.03000
C1882       C  0.02978891  0.30321547  0.13314343     0.06600
C1883       C  0.01454006  0.31478102  0.15533547    -0.03200
C1884       C  0.98564022  0.31200951  0.15675819    -0.03200
C1885       C  0.97109271  0.29779034  0.13616945     0.06800
C1886       C  0.98617633  0.28573593  0.11446090    -0.03400
Br1887     Br  0.96776487  0.26257888  0.08823747    -0.01900
Br1888     Br  0.03372774  0.27096088  0.08235923    -0.02000
Br1889     Br  0.96611615  0.32841014  0.18711595    -0.01900
Br1890     Br  0.03212497  0.33552161  0.18419770    -0.01900
C1891       C  0.20953990  0.23284894  0.10292555    -0.03000
C1892       C  0.18175903  0.22430806  0.10387505     0.06600
C1893       C  0.17623715  0.19655823  0.09865459    -0.03200
C1894       C  0.19807425  0.17723521  0.09822349    -0.03200
C1895       C  0.22570404  0.18553685  0.10256508     0.06800
C1896       C  0.23127239  0.21376028  0.10318004    -0.03400
Br1897     Br  0.26842261  0.22721083  0.10527543    -0.01900
Br1898     Br  0.21831898  0.27081169  0.09770347    -0.02000
Br1899     Br  0.19004611  0.13957834  0.08990068    -0.01900
Br1900     Br  0.13930676  0.18513766  0.09038065    -0.01900
C1901       C  0.01032456  0.11483724  0.30660196    -0.03000
C1902       C  0.02505120  0.13444237  0.29203334     0.06600
C1903       C  0.01067751  0.15691074  0.28086879    -0.03200
C1904       C  0.98257927  0.16112326  0.28627973    -0.03200
C1905       C  0.96712260  0.14041624  0.29873077     0.06800
C1906       C  0.98146102  0.11703738  0.30893495    -0.03400
Br1907     Br  0.96262200  0.08762272  0.32705194    -0.01900
Br1908     Br  0.02987514  0.08542434  0.32423354    -0.02000
Br1909     Br  0.96640841  0.19600641  0.27729235    -0.01900
Br1910     Br  0.02870588  0.18106311  0.25588730    -0.01900
C1911       C  0.11195573  0.21478295  0.18942485    -0.03000
C1912       C  0.10317258  0.24210873  0.19116296     0.06600
C1913       C  0.08856453  0.25034410  0.21487337    -0.03200
C1914       C  0.08554381  0.23275328  0.23745179    -0.03200
C1915       C  0.09573437  0.20560424  0.23625448     0.06800
C1916       C  0.10676285  0.19625447  0.21082017    -0.03400
Br1917     Br  0.11376655  0.15804958  0.20331408    -0.01900
Br1918     Br  0.13335904  0.20296945  0.15870662    -0.02000
Br1919     Br  0.06551820  0.24616366  0.26911569    -0.01900
Br1920     Br  0.07076880  0.28524065  0.21630090    -0.01900
C1921       C  0.21190006  0.13391833  0.20083644    -0.03000
C1922       C  0.22443105  0.10884137  0.19426219     0.06600
C1923       C  0.21545759  0.08474886  0.20658320    -0.03200
C1924       C  0.19426118  0.08575324  0.22597022    -0.03200
C1925       C  0.18358773  0.11121347  0.23488401     0.06800
C1926       C  0.19246204  0.13541190  0.22201255    -0.03400
Br1927     Br  0.18010767  0.17102969  0.23427416    -0.01900
Br1928     Br  0.22041978  0.16592138  0.17983900    -0.02000
Br1929     Br  0.17883170  0.05189154  0.23840661    -0.01900
Br1930     Br  0.23264473  0.05033971  0.19716659    -0.01900
C1931       C  0.48377054  0.18622997  0.38682464    -0.03000
C1932       C  0.46669825  0.20861656  0.37965688     0.06600
C1933       C  0.47986325  0.23174689  0.36800475    -0.03200
C1934       C  0.50853326  0.23162605  0.36235242    -0.03200
C1935       C  0.52503572  0.20863910  0.36801373     0.06800
C1936       C  0.51241719  0.18617295  0.38086601    -0.03400
Br1937     Br  0.53462298  0.15492807  0.39032213    -0.01900
Br1938     Br  0.46853822  0.15642740  0.40722827    -0.02000
Br1939     Br  0.52580699  0.26402028  0.34849235    -0.01900
Br1940     Br  0.45959471  0.26454840  0.35962048    -0.01900
C1941       C  0.24573895  0.18712993  0.37092309    -0.03000
C1942       C  0.26828441  0.18008724  0.35394052     0.06600
C1943       C  0.26244995  0.16369277  0.33053551    -0.03200
C1944       C  0.23538478  0.15772495  0.32259170    -0.03200
C1945       C  0.21360422  0.16075630  0.34141033     0.06800
C1946       C  0.21913745  0.17615002  0.36581024    -0.03400
Br1947     Br  0.19161413  0.18172135  0.39373415    -0.01900
Br1948     Br  0.25158234  0.21022511  0.40263411    -0.02000
Br1949     Br  0.22974996  0.14445965  0.28560103    -0.01900
Br1950     Br  0.28938216  0.14014655  0.31426215    -0.01900
C1951       C  0.35775497  0.16654964  0.22572986    -0.03000
C1952       C  0.32960552  0.16536445  0.21896345     0.06600
C1953       C  0.31022395  0.17508371  0.23803023    -0.03200
C1954       C  0.31888611  0.18307817  0.26433998    -0.03200
C1955       C  0.34594069  0.17741465  0.27280585     0.06800
C1956       C  0.36577869  0.17122025  0.25292568    -0.03400
Br1957     Br  0.40374507  0.16815297  0.26297046    -0.01900
Br1958     Br  0.38552844  0.16192668  0.19821402    -0.02000
Br1959     Br  0.29505962  0.20485759  0.28700540    -0.01900
Br1960     Br  0.27181987  0.17528921  0.22936126    -0.01900
C1961       C  0.47791380  0.40355796  0.19713570    -0.03000
C1962       C  0.46446838  0.39128907  0.21940794     0.06600
C1963       C  0.48026569  0.37777848  0.23951156    -0.03200
C1964       C  0.50843626  0.37322483  0.23514472    -0.03200
C1965       C  0.52108315  0.38239261  0.21101983     0.06800
C1966       C  0.50631156  0.39985951  0.19352265    -0.03400
Br1967     Br  0.52483298  0.41955700  0.16514445    -0.01900
Br1968     Br  0.45749356  0.42531796  0.17123587    -0.02000
Br1969     Br  0.52991346  0.35658354  0.26365143    -0.01900
Br1970     Br  0.46387596  0.36409039  0.27266238    -0.01900
C1971       C  0.37142771  0.23178011  0.15174747    -0.03000
C1972       C  0.34370288  0.22277066  0.15325858     0.06600
C1973       C  0.32463873  0.23869958  0.16834906    -0.03200
C1974       C  0.33245668  0.26445527  0.17869730    -0.03200
C1975       C  0.35805976  0.27532537  0.17162001     0.06800
C1976       C  0.37808058  0.25830694  0.15991485    -0.03400
Br1977     Br  0.41526037  0.27060044  0.15623261    -0.01900
Br1978     Br  0.40155842  0.20862783  0.13931981    -0.02000
Br1979     Br  0.30994729  0.28356992  0.20509488    -0.01900
Br1980     Br  0.28892145  0.22480486  0.17713809    -0.01900
C1981       C  0.22811976  0.36929009  0.16894660    -0.03000
C1982       C  0.22236916  0.34153565  0.16323688     0.06600
C1983       C  0.24444249  0.32280955  0.16365130    -0.03200
C1984       C  0.27152056  0.33225000  0.16478660    -0.03200
C1985       C  0.27743249  0.35936127  0.17253342     0.06800
C1986       C  0.25544593  0.37840434  0.17151445    -0.03400
Br1987     Br  0.26175861  0.41699208  0.16729358    -0.01900
Br1988     Br  0.19879564  0.39482223  0.17670234    -0.02000
Br1989     Br  0.29725912  0.31238456  0.14252401    -0.01900
Br1990     Br  0.23910906  0.28391478  0.16410826    -0.01900
C1991       C  0.39789036  0.31347398  0.29866924    -0.03000
C1992       C  0.40592625  0.30852293  0.27123735     0.06600
C1993       C  0.41812417  0.28291047  0.26491699    -0.03200
C1994       C  0.41875849  0.26171910  0.28463862    -0.03200
C1995       C  0.40606378  0.26538044  0.31046583     0.06800
C1996       C  0.39788066  0.29225572  0.31797086    -0.03400
Br1997     Br  0.38836693  0.30115581  0.35551040    -0.01900
Br1998     Br  0.38805022  0.34991845  0.31076865    -0.02000
Br1999     Br  0.43826913  0.22849092  0.27642544    -0.01900
Br2000     Br  0.43333635  0.27614252  0.22916423    -0.01900
C2001       C  0.12545676  0.35996700  0.27302918    -0.03000
C2002       C  0.15148896  0.35081014  0.28273914     0.06600
C2003       C  0.16942194  0.33729920  0.26405411    -0.03200
C2004       C  0.16051740  0.33134739  0.23728486    -0.03200
C2005       C  0.13577541  0.34256760  0.22743043     0.06800
C2006       C  0.11880764  0.35771024  0.24518927    -0.03400
Br2007     Br  0.08718211  0.37726556  0.23111001    -0.01900
Br2008     Br  0.09778742  0.37597108  0.29651731    -0.02000
Br2009     Br  0.18123771  0.30574084  0.21519423    -0.01900
Br2010     Br  0.20660139  0.32705043  0.27354355    -0.01900
C2011       C  0.13640643  0.23161535  0.37967154    -0.03000
C2012       C  0.14685543  0.22074489  0.35464087     0.06600
C2013       C  0.16589060  0.23646520  0.33964639    -0.03200
C2014       C  0.17201869  0.26332652  0.34802151    -0.03200
C2015       C  0.16051615  0.27442669  0.37200985     0.06800
C2016       C  0.14451095  0.25764239  0.38888865    -0.03400
Br2017     Br  0.13371897  0.26995303  0.42505096    -0.01900
Br2018     Br  0.10983048  0.21236056  0.40163107    -0.02000
Br2019     Br  0.19877993  0.28393757  0.32837767    -0.01900
Br2020     Br  0.18550107  0.22125038  0.30864287    -0.01900
C2021       C  0.27369052  0.30328035  0.37061008    -0.03000
C2022       C  0.26322887  0.31584569  0.39449226     0.06600
C2023       C  0.27157192  0.30524263  0.42013928    -0.03200
C2024       C  0.29066889  0.28322619  0.42176198    -0.03200
C2025       C  0.30037713  0.27011126  0.39776442     0.06800
C2026       C  0.29119752  0.28021874  0.37215999    -0.03400
Br2027     Br  0.30180042  0.26205170  0.33854511    -0.01900
Br2028     Br  0.26534167  0.31874824  0.33539726    -0.02000
Br2029     Br  0.30487677  0.27243461  0.45689690    -0.01900
Br2030     Br  0.25593995  0.31969637  0.45332087    -0.01900
C2031       C  0.29748035  0.40724123  0.32427370    -0.03000
C2032       C  0.26929079  0.40259548  0.31983798     0.06600
C2033       C  0.25892046  0.40422927  0.29269433    -0.03200
C2034       C  0.27693925  0.40580884  0.27037014    -0.03200
C2035       C  0.30529207  0.40792439  0.27451940     0.06800
C2036       C  0.31526077  0.41047857  0.30169465    -0.03400
Br2037     Br  0.35352177  0.41819509  0.30802178    -0.01900
Br2038     Br  0.31220323  0.40743044  0.36089615    -0.02000
Br2039     Br  0.26267806  0.40218623  0.23421428    -0.01900
Br2040     Br  0.21987076  0.40496809  0.28513605    -0.01900
C2041       C  0.88661264  0.98920626  0.30992098    -0.03000
C2042       C  0.87628928  0.97419036  0.28753707     0.06600
C2043       C  0.86832035  0.98755997  0.26338553    -0.03200
C2044       C  0.86912285  0.01600283  0.26223501    -0.03200
C2045       C  0.87734396  0.03108763  0.28539191     0.06800
C2046       C  0.88683677  0.01779283  0.30900613    -0.03400
Br2047     Br  0.89837628  0.03866085  0.34062587    -0.01900
Br2048     Br  0.89936623  0.97069990  0.34211888    -0.02000
Br2049     Br  0.85968345  0.03431779  0.22860488    -0.01900
Br2050     Br  0.85693898  0.96722757  0.23144308    -0.01900
C2051       C  0.83955313  0.94855739  0.40613187    -0.03000
C2052       C  0.82671569  0.93667190  0.38274345     0.06600
C2053       C  0.79756940  0.93542927  0.38270645    -0.03200
C2054       C  0.78283961  0.94129924  0.40660444    -0.03200
C2055       C  0.79463593  0.95661475  0.42798565     0.06800
C2056       C  0.82343547  0.96050281  0.42744686    -0.03400
Br2057     Br  0.84106097  0.98192900  0.45561187    -0.01900
Br2058     Br  0.87896410  0.94892552  0.40950387    -0.02000
Br2059     Br  0.74888847  0.92235061  0.41211039    -0.01900
Br2060     Br  0.77580634  0.92677208  0.35068802    -0.01900
C2061       C  0.88514100  0.80423350  0.18774434    -0.03000
C2062       C  0.90413524  0.78286481  0.18527662     0.06600
C2063       C  0.92227094  0.77795251  0.20750933    -0.03200
C2064       C  0.92157712  0.79472708  0.23137018    -0.03200
C2065       C  0.90098819  0.81497555  0.23431332     0.06800
C2066       C  0.88155977  0.81770837  0.21294649    -0.03400
Br2067     Br  0.84630544  0.83386728  0.22018202    -0.01900
Br2068     Br  0.86407625  0.81548730  0.15661182    -0.02000
Br2069     Br  0.94800729  0.78889741  0.26007388    -0.01900
Br2070     Br  0.94810999  0.74809054  0.20528269    -0.01900
C2071       C  0.69667530  0.01495734  0.11193219    -0.03000
C2072       C  0.71756009  0.02889141  0.12614395     0.06600
C2073       C  0.73757706  0.01431316  0.14089542    -0.03200
C2074       C  0.73531757  0.98602032  0.14355963    -0.03200
C2075       C  0.71325012  0.97218797  0.13096541     0.06800
C2076       C  0.69417612  0.98667091  0.11477605    -0.03400
Br2077     Br  0.66345275  0.96829485  0.09783856    -0.01900
Br2078     Br  0.67127269  0.03443649  0.08873442    -0.02000
Br2079     Br  0.76340179  0.96654556  0.16347163    -0.01900
Br2080     Br  0.76948541  0.03281817  0.15539524    -0.01900
C2081       C  0.77804373  0.80610978  0.14545512    -0.03000
C2082       C  0.77212830  0.81900460  0.12034390     0.06600
C2083       C  0.79022352  0.81479641  0.09817367    -0.03200
C2084       C  0.81264489  0.79671985  0.10064176    -0.03200
C2085       C  0.81571609  0.78035865  0.12444435     0.06800
C2086       C  0.79914440  0.78638799  0.14733655    -0.03400
Br2087     Br  0.80778816  0.77070761  0.18242996    -0.01900
Br2088     Br  0.75965208  0.81763354  0.17827465    -0.02000
Br2089     Br  0.83936158  0.79656500  0.07122252    -0.01900
Br2090     Br  0.78430730  0.83284080  0.06356739    -0.01900
C2091       C  0.77308537  0.90585180  0.20723697    -0.03000
C2092       C  0.77995679  0.89804068  0.18012550     0.06600
C2093       C  0.80794242  0.89546180  0.17291298    -0.03200
C2094       C  0.82855954  0.89743988  0.19335916    -0.03200
C2095       C  0.82106129  0.90157595  0.22101553     0.06800
C2096       C  0.79361862  0.90832987  0.22724321    -0.03400
Br2097     Br  0.78434794  0.92269086  0.26308490    -0.01900
Br2098     Br  0.73542312  0.91338564  0.21765366    -0.02000
Br2099     Br  0.86672980  0.89392719  0.18352271    -0.01900
Br2100     Br  0.81792388  0.88728767  0.13562307    -0.01900
C2101       C  0.65630887  0.51145175  0.21616476    -0.03000
C2102       C  0.63358880  0.52769177  0.20764179     0.06600
C2103       C  0.61229615  0.51476992  0.19258154    -0.03200
C2104       C  0.61214357  0.48618288  0.18910771    -0.03200
C2105       C  0.63465265  0.47013286  0.19814254     0.06800
C2106       C  0.65800097  0.48368995  0.20866561    -0.03400
Br2107     Br  0.69360969  0.46586661  0.21027756    -0.01900
Br2108     Br  0.68561189  0.52583472  0.23885821    -0.02000
Br2109     Br  0.58155591  0.46986233  0.16971791    -0.01900
Br2110     Br  0.58365840  0.53559173  0.17483336    -0.01900
C2111       C  0.66727946  0.72836155  0.14662555    -0.03000
C2112       C  0.64239854  0.72608244  0.16192686     0.06600
C2113       C  0.62795251  0.75049545  0.16854954    -0.03200
C2114       C  0.63692674  0.77567284  0.15837866    -0.03200
C2115       C  0.66045122  0.77719338  0.14142088     0.06800
C2116       C  0.67643341  0.75372159  0.13715511    -0.03400
Br2117     Br  0.71224460  0.75655258  0.11989484    -0.01900
Br2118     Br  0.68923293  0.69770830  0.13557206    -0.02000
Br2119     Br  0.61605146  0.80777024  0.16838944    -0.01900
Br2120     Br  0.59549261  0.75090092  0.19166115    -0.01900
C2121       C  0.73570110  0.66890360  0.17540470    -0.03000
C2122       C  0.72132480  0.64834292  0.16079424     0.06600
C2123       C  0.73368441  0.63553738  0.13801482    -0.03200
C2124       C  0.75923971  0.64420905  0.12901271    -0.03200
C2125       C  0.77224959  0.66621366  0.14171121     0.06800
C2126       C  0.76127980  0.67763928  0.16581845    -0.03400
Br2127     Br  0.78195374  0.70405474  0.18660179    -0.01900
Br2128     Br  0.71995758  0.68716895  0.20696736    -0.02000
Br2129     Br  0.77734165  0.62418635  0.10080624    -0.01900
Br2130     Br  0.71689040  0.60523005  0.11922310    -0.01900
C2131       C  0.73953261  0.85408276  0.37529561    -0.03000
C2132       C  0.72001200  0.85694328  0.35395343     0.06600
C2133       C  0.72957068  0.86217600  0.32761750    -0.03200
C2134       C  0.75769938  0.85981657  0.32146965    -0.03200
C2135       C  0.77771144  0.85891657  0.34286224     0.06800
C2136       C  0.76802760  0.85657433  0.37011644    -0.03400
Br2137     Br  0.79302865  0.85576788  0.40092911    -0.01900
Br2138     Br  0.72768667  0.84767918  0.41217504    -0.02000
Br2139     Br  0.76673598  0.85459158  0.28325107    -0.01900
Br2140     Br  0.70429192  0.87525607  0.30043742    -0.01900
C2141       C  0.67499945  0.82928416  0.23226814    -0.03000
C2142       C  0.65716065  0.84730998  0.21821219     0.06600
C2143       C  0.63377666  0.85730899  0.23191652    -0.03200
C2144       C  0.62961421  0.85055863  0.25944740    -0.03200
C2145       C  0.65066886  0.83795411  0.27499212     0.06800
C2146       C  0.67284563  0.82601220  0.26077591    -0.03400
Br2147     Br  0.70025866  0.80500161  0.28003014    -0.01900
Br2148     Br  0.69974868  0.80597880  0.21217740    -0.02000
Br2149     Br  0.59268309  0.85214786  0.27244891    -0.01900
Br2150     Br  0.60680234  0.87991349  0.21364440    -0.01900
C2151       C  0.66854989  0.91250770  0.41317122    -0.03000
C2152       C  0.65558988  0.89101156  0.42741044     0.06600
C2153       C  0.65012844  0.89615859  0.45522783    -0.03200
C2154       C  0.66555834  0.91614141  0.46994434    -0.03200
C2155       C  0.68498486  0.93242309  0.45613042     0.06800
C2156       C  0.68252786  0.93337868  0.42752532    -0.03400
Br2157     Br  0.69455769  0.96563968  0.40850964    -0.01900
Br2158     Br  0.66164380  0.91846511  0.37526899    -0.02000
Br2159     Br  0.65623792  0.92466624  0.50704664    -0.01900
Br2160     Br  0.61742455  0.88060683  0.47031391    -0.01900
C2161       C  0.59498676  0.70257576  0.31878370    -0.03000
C2162       C  0.61370617  0.72456031  0.31908171     0.06600
C2163       C  0.63281618  0.72532791  0.29724454    -0.03200
C2164       C  0.62880908  0.71014964  0.27302696    -0.03200
C2165       C  0.61175494  0.68671942  0.27285055     0.06800
C2166       C  0.59526928  0.68284524  0.29685837    -0.03400
Br2167     Br  0.57208736  0.65130526  0.30047399    -0.01900
Br2168     Br  0.56974988  0.69859137  0.34874877    -0.02000
Br2169     Br  0.64672304  0.72401409  0.24065349    -0.01900
Br2170     Br  0.66766735  0.74368131  0.30156224    -0.01900
C2171       C  0.77934220  0.51857293  0.38584834    -0.03000
C2172       C  0.78953260  0.53224913  0.36249481     0.06600
C2173       C  0.79865522  0.51636135  0.33993426    -0.03200
C2174       C  0.80019269  0.48767993  0.34174046    -0.03200
C2175       C  0.78936502  0.47375668  0.36480315     0.06800
C2176       C  0.77880634  0.48973005  0.38681802    -0.03400
Br2177     Br  0.76246730  0.47298193  0.41857227    -0.01900
Br2178     Br  0.76363525  0.53893719  0.41625651    -0.02000
Br2179     Br  0.81959289  0.46856447  0.31265081    -0.01900
Br2180     Br  0.81031523  0.53334212  0.30618732    -0.01900
C2181       C  0.85350544  0.69464199  0.24402651    -0.03000
C2182       C  0.84577139  0.67711851  0.22231097     0.06600
C2183       C  0.83214301  0.65244867  0.22818899    -0.03200
C2184       C  0.82727874  0.64520924  0.25552163    -0.03200
C2185       C  0.83697630  0.66189086  0.27716404     0.06800
C2186       C  0.85069374  0.68629190  0.27128640    -0.03400
Br2187     Br  0.86652268  0.70800791  0.30025834    -0.01900
Br2188     Br  0.86634756  0.73094827  0.23653464    -0.02000
Br2189     Br  0.80930054  0.61100583  0.26318918    -0.01900
Br2190     Br  0.82140192  0.62730809  0.19940957    -0.01900
C2191       C  0.81875514  0.74575558  0.33912739    -0.03000
C2192       C  0.82628206  0.73682254  0.36561179     0.06600
C2193       C  0.83741962  0.75597632  0.38420190    -0.03200
C2194       C  0.84200588  0.78305514  0.37621366    -0.03200
C2195       C  0.83863102  0.79083466  0.34833864     0.06800
C2196       C  0.82619885  0.77206775  0.33006510    -0.03400
Br2197     Br  0.81813875  0.78247265  0.29289147    -0.01900
Br2198     Br  0.79617285  0.72298334  0.31590420    -0.02000
Br2199     Br  0.85405284  0.80821698  0.40467514    -0.01900
Br2200     Br  0.84880918  0.74523738  0.42051734    -0.01900
C2201       C  0.70634421  0.64044450  0.31415027    -0.03000
C2202       C  0.71370579  0.61637628  0.32783728     0.06600
C2203       C  0.69705283  0.59300683  0.32468158    -0.03200
C2204       C  0.67573598  0.59276273  0.30489292    -0.03200
C2205       C  0.67174481  0.61556275  0.28778757     0.06800
C2206       C  0.68642281  0.63973079  0.29358331    -0.03400
Br2207     Br  0.68251405  0.67148773  0.27129537    -0.01900
Br2208     Br  0.72484305  0.67451342  0.32216617    -0.02000
Br2209     Br  0.65457210  0.56008787  0.29925682    -0.01900
Br2210     Br  0.70480490  0.56054902  0.34537329    -0.01900
C2211       C  0.73337415  0.71517300  0.40099257    -0.03000
C2212       C  0.72761559  0.68791538  0.39353098     0.06600
C2213       C  0.69972199  0.68069027  0.38972713    -0.03200
C2214       C  0.67901653  0.70122270  0.38851534    -0.03200
C2215       C  0.68602346  0.72903194  0.39146859     0.06800
C2216       C  0.71323060  0.73563521  0.39895776    -0.03400
Br2217     Br  0.72336915  0.77284216  0.40780242    -0.01900
Br2218     Br  0.76727284  0.72431436  0.41883444    -0.02000
Br2219     Br  0.64143702  0.69123936  0.38179378    -0.01900
Br2220     Br  0.68946725  0.64294710  0.38723569    -0.01900
C2221       C  0.30094281  0.98162041  0.15059499    -0.03000
C2222       C  0.28574106  0.96662089  0.13106792     0.06600
C2223       C  0.26886530  0.98102039  0.11234178    -0.03200
C2224       C  0.26869556  0.00987779  0.11185525    -0.03200
C2225       C  0.28560733  0.02496492  0.12996183     0.06800
C2226       C  0.30175402  0.01031718  0.14940386    -0.03400
Br2227     Br  0.32627503  0.02853813  0.17477504    -0.01900
Br2228     Br  0.32059558  0.96341249  0.17987879    -0.02000
Br2229     Br  0.24331670  0.02828369  0.08771296    -0.01900
Br2230     Br  0.24311278  0.96146595  0.08938291    -0.01900
C2231       C  0.14739155  0.98871669  0.29678967    -0.03000
C2232       C  0.12714939  0.97309849  0.28283979     0.06600
C2233       C  0.10536579  0.98787207  0.27006498    -0.03200
C2234       C  0.10279161  0.01680741  0.27312293    -0.03200
C2235       C  0.12237779  0.03199621  0.28821862     0.06800
C2236       C  0.14530435  0.01753137  0.29888846    -0.03400
Br2237     Br  0.17591916  0.03724127  0.31452102    -0.01900
Br2238     Br  0.17863792  0.97147095  0.31384576    -0.02000
Br2239     Br  0.07207142  0.03556323  0.25674287    -0.01900
Br2240     Br  0.08011785  0.96916440  0.24601746    -0.01900
C2241       C  0.01574132  0.85535911  0.31285315    -0.03000
C2242       C  0.03057653  0.87934201  0.30763128     0.06600
C2243       C  0.01602448  0.90424586  0.30562851    -0.03200
C2244       C  0.98694004  0.90470987  0.30715211    -0.03200
C2245       C  0.97214221  0.88036067  0.31147288     0.06800
C2246       C  0.98701603  0.85600389  0.31578431    -0.03400
Br2247     Br  0.96842548  0.82243249  0.32338391    -0.01900
Br2248     Br  0.03384763  0.82052494  0.31168279    -0.02000
Br2249     Br  0.96737992  0.93881363  0.30371029    -0.01900
Br2250     Br  0.03594606  0.93766846  0.30067800    -0.01900
C2251       C  0.18052195  0.86928015  0.19222258    -0.03000
C2252       C  0.17918477  0.89062648  0.21153477     0.06600
C2253       C  0.20049366  0.90986419  0.21213150    -0.03200
C2254       C  0.22340213  0.90676732  0.19475949    -0.03200
C2255       C  0.22683495  0.88271196  0.17879206     0.06800
C2256       C  0.20524084  0.86371530  0.17822091    -0.03400
Br2257     Br  0.21018014  0.82886714  0.16085115    -0.01900
Br2258     Br  0.14718718  0.85185621  0.18058631    -0.02000
Br2259     Br  0.24990964  0.93561057  0.19397393    -0.01900
Br2260     Br  0.19781353  0.94105474  0.23629124    -0.01900
C2261       C  0.98921986  0.74680949  0.11628707    -0.03000
C2262       C  0.97362208  0.72326123  0.11121321     0.06600
C2263       C  0.98545912  0.70060279  0.09817848    -0.03200
C2264       C  0.01390016  0.69933724  0.09485683    -0.03200
C2265       C  0.03042321  0.72181835  0.10265624     0.06800
C2266       C  0.01764820  0.74640245  0.11127851    -0.03400
Br2267     Br  0.03885782  0.77873675  0.11901829    -0.01900
Br2268     Br  0.97156235  0.77942330  0.13012960    -0.02000
Br2269     Br  0.02973565  0.66516805  0.08291923    -0.01900
Br2270     Br  0.96274745  0.67052720  0.08645562    -0.01900
C2271       C  0.23763197  0.78021852  0.08906366    -0.03000
C2272       C  0.22756323  0.80719899  0.09428041     0.06600
C2273       C  0.19888222  0.81140714  0.09429437    -0.03200
C2274       C  0.18103571  0.78875451  0.09446215    -0.03200
C2275       C  0.19158465  0.76170432  0.09375531     0.06800
C2276       C  0.21968284  0.75771824  0.08861552    -0.03400
Br2277     Br  0.23385054  0.72141425  0.08154784    -0.01900
Br2278     Br  0.27600650  0.77324447  0.08139920    -0.02000
Br2279     Br  0.14182045  0.79497501  0.09473937    -0.01900
Br2280     Br  0.18369461  0.84785987  0.09509777    -0.01900
C2281       C  0.12193002  0.79765176  0.22206276    -0.03000
C2282       C  0.09697965  0.80778165  0.23259977     0.06600
C2283       C  0.07211272  0.79596089  0.22367924    -0.03200
C2284       C  0.07227160  0.77460349  0.20386653    -0.03200
C2285       C  0.09738932  0.76517268  0.19252531     0.06800
C2286       C  0.12225821  0.77645469  0.20244884    -0.03400
Br2287     Br  0.15730755  0.76153420  0.19095648    -0.01900
Br2288     Br  0.15603213  0.81303157  0.23473484    -0.02000
Br2289     Br  0.03797999  0.75894517  0.19198903    -0.01900
Br2290     Br  0.03781683  0.81009572  0.23747234    -0.01900
C2291       C  0.51502263  0.78181791  0.35222756    -0.03000
C2292       C  0.53006126  0.79916883  0.37005337     0.06600
C2293       C  0.51525957  0.81622898  0.38854139    -0.03200
C2294       C  0.48612303  0.81664734  0.38825423    -0.03200
C2295       C  0.47147222  0.79930699  0.37044006     0.06800
C2296       C  0.48613078  0.78113470  0.35336290    -0.03400
Br2297     Br  0.46664788  0.75449509  0.33175015    -0.01900
Br2298     Br  0.53331598  0.75859869  0.32569339    -0.02000
Br2299     Br  0.46595581  0.84047071  0.41261512    -0.01900
Br2300     Br  0.53449242  0.84064480  0.41296243    -0.01900
C2301       C  0.35036118  0.82153173  0.25240847    -0.03000
C2302       C  0.33835115  0.83535397  0.27471515     0.06600
C2303       C  0.31863685  0.85593336  0.26908815    -0.03200
C2304       C  0.31215949  0.86247864  0.24192863    -0.03200
C2305       C  0.32949171  0.85356227  0.22041277     0.06800
C2306       C  0.34892132  0.83281945  0.22613062    -0.03400
Br2307     Br  0.37743686  0.82270450  0.20088743    -0.01900
Br2308     Br  0.36865264  0.78735924  0.25702943    -0.02000
Br2309     Br  0.27856602  0.88226007  0.23499417    -0.01900
Br2310     Br  0.30059570  0.87635913  0.29789369    -0.01900
C2311       C  0.26505647  0.82369792  0.32393893    -0.03000
C2312       C  0.27615796  0.83084294  0.34952491     0.06600
C2313       C  0.25785351  0.83910777  0.37043830    -0.03200
C2314       C  0.22986437  0.84419921  0.36466768    -0.03200
C2315       C  0.22020149  0.84314866  0.33725558     0.06800
C2316       C  0.23796562  0.83146146  0.31706395    -0.03400
Br2317     Br  0.22692430  0.82631987  0.27932663    -0.01900
Br2318     Br  0.28640810  0.80214795  0.29863054    -0.02000
Br2319     Br  0.20574961  0.85295793  0.39502194    -0.01900
Br2320     Br  0.27020497  0.84162063  0.40771641    -0.01900
C2321       C  0.35895468  0.51544159  0.21737910    -0.03000
C2322       C  0.38402886  0.52916337  0.21320248     0.06600
C2323       C  0.40868352  0.51500689  0.21931977    -0.03200
C2324       C  0.40819368  0.48707298  0.22687656    -0.03200
C2325       C  0.38303899  0.47358609  0.23106715     0.06800
C2326       C  0.35862131  0.48895810  0.22837356    -0.03400
Br2327     Br  0.32453909  0.47490784  0.24193479    -0.01900
Br2328     Br  0.32445029  0.53188607  0.20725510    -0.02000
Br2329     Br  0.44189166  0.46724661  0.23246807    -0.01900
Br2330     Br  0.44317726  0.53360962  0.21643845    -0.01900
C2331       C  0.48670741  0.61451273  0.19497065    -0.03000
C2332       C  0.47383006  0.63264567  0.21337274     0.06600
C2333       C  0.48957671  0.65126415  0.22862455    -0.03200
C2334       C  0.51782785  0.65369418  0.22366151    -0.03200
C2335       C  0.53115589  0.63504919  0.20574017     0.06800
C2336       C  0.51539596  0.61484088  0.19209295    -0.03400
Br2337     Br  0.53227181  0.58758463  0.16888135    -0.01900
Br2338     Br  0.46492701  0.59032623  0.17237820    -0.02000
Br2339     Br  0.53754506  0.68243314  0.24232749    -0.01900
Br2340     Br  0.47279149  0.67155884  0.25823094    -0.01900
C2341       C  0.33383278  0.76912026  0.17176784    -0.03000
C2342       C  0.34830260  0.78542385  0.15318722     0.06600
C2343       C  0.37456772  0.77648242  0.14448833    -0.03200
C2344       C  0.38409848  0.74998936  0.15019470    -0.03200
C2345       C  0.36883637  0.73287719  0.16722308     0.06800
C2346       C  0.34480495  0.74356907  0.17987944    -0.03400
Br2347     Br  0.32807501  0.72438054  0.20975383    -0.01900
Br2348     Br  0.29923324  0.78201003  0.18612705    -0.02000
Br2349     Br  0.41743895  0.73684376  0.13313079    -0.01900
Br2350     Br  0.39910386  0.80088630  0.12681510    -0.01900
C2351       C  0.26028860  0.62813954  0.17124585    -0.03000
C2352       C  0.27902646  0.64984260  0.16976635     0.06600
C2353       C  0.26952477  0.67538347  0.16011684    -0.03200
C2354       C  0.24139836  0.67957375  0.15506841    -0.03200
C2355       C  0.22392921  0.65681643  0.15200684     0.06800
C2356       C  0.23436746  0.63065211  0.15893247    -0.03400
Br2357     Br  0.21627596  0.59711743  0.14811669    -0.01900
Br2358     Br  0.27017741  0.59382195  0.18770813    -0.02000
Br2359     Br  0.22772527  0.71665681  0.15394220    -0.01900
Br2360     Br  0.29433626  0.70419302  0.15049866    -0.01900
C2361       C  0.41123110  0.72008927  0.25613736    -0.03000
C2362       C  0.39437284  0.69805650  0.26372603     0.06600
C2363       C  0.38549073  0.69626548  0.29099477    -0.03200
C2364       C  0.38999174  0.71804815  0.30930357    -0.03200
C2365       C  0.40239829  0.74246513  0.30003723     0.06800
C2366       C  0.41546362  0.74214122  0.27417674    -0.03400
Br2367     Br  0.44013321  0.77091009  0.26285653    -0.01900
Br2368     Br  0.43126675  0.71946837  0.22231616    -0.02000
Br2369     Br  0.38152432  0.71239821  0.34754972    -0.01900
Br2370     Br  0.36746577  0.66365917  0.30359185    -0.01900
C2371       C  0.20709750  0.52173840  0.39533368    -0.03000
C2372       C  0.20887826  0.53643770  0.37083360     0.06600
C2373       C  0.21073291  0.52123419  0.34614256    -0.03200
C2374       C  0.21318982  0.49241862  0.34629455    -0.03200
C2375       C  0.20772112  0.47737119  0.37042230     0.06800
C2376       C  0.20423774  0.49288755  0.39514306    -0.03400
Br2377     Br  0.19514354  0.47602074  0.42954766    -0.01900
Br2378     Br  0.20979722  0.54118106  0.42945045    -0.02000
Br2379     Br  0.22755790  0.47503894  0.31360152    -0.01900
Br2380     Br  0.20851436  0.53907775  0.31133747    -0.01900
C2381       C  0.18891627  0.74135735  0.33026971    -0.03000
C2382       C  0.18694576  0.73286392  0.35775537     0.06600
C2383       C  0.17909128  0.75273599  0.37740388    -0.03200
C2384       C  0.16678596  0.77761094  0.36913087    -0.03200
C2385       C  0.16495435  0.78465224  0.34086973     0.06800
C2386       C  0.17730461  0.76641838  0.32185551    -0.03400
Br2387     Br  0.17796129  0.77410725  0.28371950    -0.01900
Br2388     Br  0.20916532  0.71969120  0.30380500    -0.02000
Br2389     Br  0.14956254  0.79950109  0.39752659    -0.01900
Br2390     Br  0.18558133  0.74670016  0.41595036    -0.01900
C2391       C  0.13818733  0.68823036  0.24093275    -0.03000
C2392       C  0.14601182  0.67121394  0.21908276     0.06600
C2393       C  0.16310258  0.64845591  0.22434425    -0.03200
C2394       C  0.17425703  0.64402999  0.25048153    -0.03200
C2395       C  0.16743130  0.66174221  0.27226263     0.06800
C2396       C  0.14918990  0.68408605  0.26720268    -0.03400
Br2397     Br  0.13705194  0.70878148  0.29603325    -0.01900
Br2398     Br  0.10985840  0.71527141  0.23575733    -0.02000
Br2399     Br  0.19558963  0.61121788  0.25667393    -0.01900
Br2400     Br  0.16646609  0.61963822  0.19790449    -0.01900
C2401       C  0.28300285  0.58242131  0.29813669    -0.03000
C2402       C  0.26498419  0.60505906  0.29820456     0.06600
C2403       C  0.26998721  0.62694163  0.28042529    -0.03200
C2404       C  0.29287952  0.62640507  0.26308073    -0.03200
C2405       C  0.31018658  0.60331572  0.26221842     0.06800
C2406       C  0.30532147  0.58137618  0.27984428    -0.03400
Br2407     Br  0.33119971  0.55152611  0.28114672    -0.01900
Br2408     Br  0.27922843  0.55445426  0.32524730    -0.02000
Br2409     Br  0.30170351  0.65858676  0.24254425    -0.01900
Br2410     Br  0.24641654  0.65858865  0.28052599    -0.01900
C2411       C  0.27488865  0.71450091  0.42440080    -0.03000
C2412       C  0.26735928  0.70086447  0.39987966     0.06600
C2413       C  0.27707576  0.71121330  0.37474465    -0.03200
C2414       C  0.29471801  0.73377339  0.37407613    -0.03200
C2415       C  0.30311984  0.74681844  0.39851362     0.06800
C2416       C  0.29290729  0.73713331  0.42370535    -0.03400
Br2417     Br  0.30552620  0.75305290  0.45760626    -0.01900
Br2418     Br  0.26204616  0.70156212  0.45923868    -0.02000
Br2419     Br  0.30693839  0.74667307  0.33892521    -0.01900
Br2420     Br  0.26588415  0.69527672  0.34028898    -0.01900
C2421       C  0.28367008  0.89738787  0.97591972    -0.03000
C2422       C  0.28980468  0.87333282  0.96113946     0.06600
C2423       C  0.28935282  0.84825794  0.97536447    -0.03200
C2424       C  0.28121806  0.84743220  0.00272391    -0.03200
C2425       C  0.28121025  0.87148166  0.01870910     0.06800
C2426       C  0.28145163  0.89686726  0.00480328    -0.03400
Br2427     Br  0.27685246  0.93113869  0.02403412    -0.01900
Br2428     Br  0.27747238  0.93085108  0.95656781    -0.02000
Br2429     Br  0.26602608  0.81349950  0.01604705    -0.01900
Br2430     Br  0.30091172  0.81398638  0.95998055    -0.01900
C2431       C  0.10765419  0.68072875  0.98456247    -0.03000
C2432       C  0.13083006  0.69073681  0.97093810     0.06600
C2433       C  0.15125071  0.70398633  0.98632935    -0.03200
C2434       C  0.14666501  0.71129595  0.01382484    -0.03200
C2435       C  0.12391975  0.70078523  0.02816668     0.06800
C2436       C  0.10515919  0.68424615  0.01329215    -0.03400
Br2437     Br  0.07569504  0.66673014  0.03174862    -0.01900
Br2438     Br  0.07943982  0.66252551  0.96370595    -0.02000
Br2439     Br  0.17177160  0.73647107  0.03050150    -0.01900
Br2440     Br  0.18699210  0.70928402  0.97051540    -0.01900
C2441       C  0.23621605  0.78003490  0.87301311    -0.03000
C2442       C  0.24170094  0.79744900  0.89528841     0.06600
C2443       C  0.22548595  0.79525220  0.91902594    -0.03200
C2444       C  0.20497046  0.77499260  0.92046745    -0.03200
C2445       C  0.20255563  0.75509390  0.89950960     0.06800
C2446       C  0.21946876  0.75728563  0.87620667    -0.03400
Br2447     Br  0.22043009  0.73046011  0.84741150    -0.01900
Br2448     Br  0.24594129  0.79038215  0.83639670    -0.02000
Br2449     Br  0.17827518  0.77649140  0.94948573    -0.01900
Br2450     Br  0.22739993  0.82313809  0.94687670    -0.01900
C2451       C  0.09289639  0.82304072  0.80210539    -0.03000
C2452       C  0.11641474  0.82635506  0.78544818     0.06600
C2453       C  0.14021193  0.81100099  0.79207407    -0.03200
C2454       C  0.13912619  0.79029636  0.81179987    -0.03200
C2455       C  0.11440176  0.78369943  0.82503438     0.06800
C2456       C  0.09138280  0.80089608  0.82066394    -0.03400
Br2457     Br  0.05689719  0.79265060  0.83754610    -0.01900
Br2458     Br  0.06332685  0.84926769  0.80083235    -0.02000
Br2459     Br  0.17199944  0.77077105  0.82068880    -0.01900
Br2460     Br  0.17523506  0.81885557  0.77520473    -0.01900
C2461       C  0.23233155  0.91736524  0.78201645    -0.03000
C2462       C  0.23150862  0.90232497  0.80629494     0.06600
C2463       C  0.20575399  0.89136919  0.81405495    -0.03200
C2464       C  0.18388423  0.89027935  0.79515945    -0.03200
C2465       C  0.18840244  0.89709297  0.76763799     0.06800
C2466       C  0.21201366  0.91291999  0.76173899    -0.03400
Br2467     Br  0.21579373  0.93120252  0.72741863    -0.01900
Br2468     Br  0.25713340  0.94778437  0.77919124    -0.02000
Br2469     Br  0.14751321  0.88201932  0.80781104    -0.01900
Br2470     Br  0.19914712  0.88013053  0.85128776    -0.01900
C2471       C  0.24433030  0.61985406  0.50872015    -0.03000
C2472       C  0.22051790  0.61206980  0.52294655     0.06600
C2473       C  0.19847446  0.60042053  0.50858625    -0.03200
C2474       C  0.19883334  0.59939392  0.47981038    -0.03200
C2475       C  0.22215380  0.60867667  0.46506734     0.06800
C2476       C  0.24558593  0.61724812  0.48000013    -0.03400
Br2477     Br  0.27911219  0.62732928  0.46171303    -0.01900
Br2478     Br  0.27518138  0.63479089  0.52857084    -0.02000
Br2479     Br  0.16619823  0.58641334  0.46135300    -0.01900
Br2480     Br  0.16668941  0.58791181  0.52846066    -0.01900
C2481       C  0.17410542  0.66208452  0.73611641    -0.03000
C2482       C  0.16803848  0.63531605  0.72744737     0.06600
C2483       C  0.15455580  0.61727499  0.74462256    -0.03200
C2484       C  0.14729120  0.62568580  0.77095647    -0.03200
C2485       C  0.15099707  0.65342926  0.77914105     0.06800
C2486       C  0.16488865  0.67151692  0.76160470    -0.03400
Br2487     Br  0.17494626  0.70806115  0.77323681    -0.01900
Br2488     Br  0.19725555  0.68517434  0.71437541    -0.02000
Br2489     Br  0.13644541  0.59719372  0.79573871    -0.01900
Br2490     Br  0.14586614  0.58089028  0.73174057    -0.01900
C2491       C  0.18526922  0.76822346  0.65092105    -0.03000
C2492       C  0.16146598  0.77443764  0.66606143     0.06600
C2493       C  0.14442797  0.75329479  0.67527662    -0.03200
C2494       C  0.15067876  0.72608578  0.66840573    -0.03200
C2495       C  0.17519612  0.71987516  0.65403299     0.06800
C2496       C  0.19324063  0.74100406  0.64699172    -0.03400
Br2497     Br  0.22955314  0.73286035  0.63329101    -0.01900
Br2498     Br  0.20570097  0.79645829  0.63310491    -0.02000
Br2499     Br  0.12402072  0.69819888  0.67667303    -0.01900
Br2500     Br  0.11055225  0.76174044  0.69424616    -0.01900
C2501       C  0.35262461  0.71899749  0.86922702    -0.03000
C2502       C  0.34388561  0.70679226  0.84454863     0.06600
C2503       C  0.32571957  0.72106965  0.82733639    -0.03200
C2504       C  0.32159593  0.74902845  0.83115649    -0.03200
C2505       C  0.33337443  0.76222422  0.85389808     0.06800
C2506       C  0.34648494  0.74653363  0.87423350    -0.03400
Br2507     Br  0.35647108  0.76198093  0.90896855    -0.01900
Br2508     Br  0.37430103  0.69915684  0.89573567    -0.02000
Br2509     Br  0.30068350  0.76862527  0.80433008    -0.01900
Br2510     Br  0.30559922  0.70244936  0.79903810    -0.01900
C2511       C  0.27696012  0.65933102  0.85879232    -0.03000
C2512       C  0.28467722  0.64587006  0.83408175     0.06600
C2513       C  0.26321879  0.63753435  0.81615222    -0.03200
C2514       C  0.23538941  0.64365131  0.82209905    -0.03200
C2515       C  0.22764882  0.65829814  0.84591682     0.06800
C2516       C  0.24899570  0.66566879  0.86444725    -0.03400
Br2517     Br  0.24038436  0.68192799  0.89958112    -0.01900
Br2518     Br  0.30387842  0.66706092  0.88688735    -0.02000
Br2519     Br  0.20812894  0.62983073  0.79772518    -0.01900
Br2520     Br  0.27044878  0.61299136  0.78566806    -0.01900
C2521       C  0.28289724  0.63209593  0.70099646    -0.03000
C2522       C  0.27488536  0.60980300  0.68430944     0.06600
C2523       C  0.28701669  0.58379619  0.68964906    -0.03200
C2524       C  0.30685387  0.58055380  0.71063401    -0.03200
C2525       C  0.31466673  0.60283441  0.72701489     0.06800
C2526       C  0.30225875  0.62846639  0.72231107    -0.03400
Br2527     Br  0.31211293  0.65898473  0.74514204    -0.01900
Br2528     Br  0.26917334  0.66830776  0.69363607    -0.02000
Br2529     Br  0.32407864  0.54557161  0.71678075    -0.01900
Br2530     Br  0.27648696  0.55160082  0.66943583    -0.01900
C2531       C  0.40136156  0.78612959  0.50758811    -0.03000
C2532       C  0.37696217  0.79244893  0.52243785     0.06600
C2533       C  0.35397578  0.80236483  0.50751509    -0.03200
C2534       C  0.35577883  0.80754287  0.47941384    -0.03200
C2535       C  0.37967550  0.80021877  0.46450133     0.06800
C2536       C  0.40247872  0.78967206  0.47882449    -0.03400
Br2537     Br  0.43579363  0.78116557  0.45908224    -0.01900
Br2538     Br  0.43287052  0.77017620  0.52542139    -0.02000
Br2539     Br  0.32396288  0.82429114  0.46219178    -0.01900
Br2540     Br  0.31827275  0.80768114  0.52384246    -0.01900
C2541       C  0.27338196  0.87249319  0.64181323    -0.03000
C2542       C  0.28121210  0.84498368  0.64661526     0.06600
C2543       C  0.26542128  0.82883521  0.66446541    -0.03200
C2544       C  0.24085483  0.83938065  0.67518058    -0.03200
C2545       C  0.23156110  0.86530598  0.66714799     0.06800
C2546       C  0.24874617  0.88255867  0.65235429    -0.03400
Br2547     Br  0.23888279  0.92011413  0.64595590    -0.01900
Br2548     Br  0.29550200  0.89769416  0.62104281    -0.02000
Br2549     Br  0.22054968  0.81902535  0.70206682    -0.01900
Br2550     Br  0.27708994  0.79270797  0.67531825    -0.01900
C2551       C  0.31918101  0.85660377  0.71882681    -0.03000
C2552       C  0.33052044  0.83087973  0.71112220     0.06600
C2553       C  0.33397572  0.81122868  0.73190147    -0.03200
C2554       C  0.33257452  0.81925645  0.75955132    -0.03200
C2555       C  0.31975940  0.84406809  0.76740507     0.06800
C2556       C  0.31193934  0.86200083  0.74631681    -0.03400
Br2557     Br  0.29319027  0.89532085  0.75475381    -0.01900
Br2558     Br  0.31608975  0.88651941  0.69352285    -0.02000
Br2559     Br  0.35686619  0.80038272  0.78391220    -0.01900
Br2560     Br  0.34214254  0.77333217  0.72398429    -0.01900
C2561       C  0.33057749  0.68914120  0.60300009    -0.03000
C2562       C  0.32315479  0.71533873  0.59356205     0.06600
C2563       C  0.29734449  0.71876270  0.58090846    -0.03200
C2564       C  0.27780042  0.69780335  0.58145609    -0.03200
C2565       C  0.28337158  0.67337640  0.59558440     0.06800
C2566       C  0.31038638  0.66847462  0.60500297    -0.03400
Br2567     Br  0.31919381  0.63441946  0.62224746    -0.01900
Br2568     Br  0.36815088  0.68152084  0.61281780    -0.02000
Br2569     Br  0.24333968  0.70268003  0.56234201    -0.01900
Br2570     Br  0.28894197  0.75205666  0.56188608    -0.01900
C2571       C  0.42323084  0.72445583  0.69888798    -0.03000
C2572       C  0.40000580  0.73026766  0.68255085     0.06600
C2573       C  0.37754875  0.71221581  0.68333397    -0.03200
C2574       C  0.37925710  0.68795259  0.69827749    -0.03200
C2575       C  0.40056066  0.68391769  0.71719971     0.06800
C2576       C  0.42274777  0.70240393  0.71742486    -0.03400
Br2577     Br  0.45252278  0.69761546  0.74290910    -0.01900
Br2578     Br  0.45615524  0.74540946  0.69488002    -0.02000
Br2579     Br  0.35456571  0.65878440  0.68988983    -0.01900
Br2580     Br  0.34285757  0.72199997  0.66699664    -0.01900
C2581       C  0.71523615  0.84739424  0.98477911    -0.03000
C2582       C  0.71043370  0.87257176  0.97164617     0.06600
C2583       C  0.70158295  0.89497681  0.98739787    -0.03200
C2584       C  0.69916947  0.89300235  0.01610130    -0.03200
C2585       C  0.70561191  0.86807852  0.02983229     0.06800
C2586       C  0.71312280  0.84512470  0.01352509    -0.03400
Br2587     Br  0.72042012  0.80984704  0.02958031    -0.01900
Br2588     Br  0.72257699  0.81490135  0.96365466    -0.02000
Br2589     Br  0.68543018  0.92504288  0.03520655    -0.01900
Br2590     Br  0.69202388  0.92853959  0.96906066    -0.01900
C2591       C  0.87399417  0.69857357  0.99103981    -0.03000
C2592       C  0.85512329  0.71456174  0.97607896     0.06600
C2593       C  0.83263098  0.72676219  0.99003694    -0.03200
C2594       C  0.83217710  0.72738082  0.01891544    -0.03200
C2595       C  0.85361894  0.71488505  0.03382392     0.06800
C2596       C  0.87299232  0.69842704  0.01969043    -0.03400
Br2597     Br  0.89689836  0.67363129  0.03934828    -0.01900
Br2598     Br  0.90015658  0.67497662  0.97246923    -0.02000
Br2599     Br  0.80189387  0.74497431  0.03755101    -0.01900
Br2600     Br  0.80196003  0.74222934  0.97034548    -0.01900
C2601       C  0.99233528  0.68272219  0.88948027    -0.03000
C2602       C  0.97617738  0.70665594  0.89115545     0.06600
C2603       C  0.98971286  0.73198016  0.89457987    -0.03200
C2604       C  0.01876262  0.73337514  0.89397073    -0.03200
C2605       C  0.03465936  0.70982987  0.88855617     0.06800
C2606       C  0.02133486  0.68433942  0.88820506    -0.03400
Br2607     Br  0.04290871  0.65150944  0.88841376    -0.01900
Br2608     Br  0.97484571  0.64762525  0.89065340    -0.02000
Br2609     Br  0.03689528  0.76735304  0.90175535    -0.01900
Br2610     Br  0.96866636  0.76526959  0.89838877    -0.01900
C2611       C  0.81235296  0.79150325  0.90791169    -0.03000
C2612       C  0.81535583  0.77384463  0.88474922     0.06600
C2613       C  0.79605435  0.77613184  0.86322225    -0.03200
C2614       C  0.77297609  0.79348105  0.86588280    -0.03200
C2615       C  0.76880071  0.80905494  0.88988264     0.06800
C2616       C  0.78934352  0.80904096  0.91017461    -0.03400
Br2617     Br  0.78757068  0.83545803  0.93968539    -0.01900
Br2618     Br  0.83963971  0.79342472  0.93675148    -0.02000
Br2619     Br  0.74818234  0.79782023  0.83552077    -0.01900
Br2620     Br  0.80266224  0.75825080  0.82858071    -0.01900
C2621       C  0.98754039  0.84828048  0.72893005    -0.03000
C2622       C  0.97306432  0.86590266  0.71140121     0.06600
C2623       C  0.98753096  0.88238590  0.69304584    -0.03200
C2624       C  0.01636995  0.88091177  0.69199303    -0.03200
C2625       C  0.03088943  0.86280124  0.70929140     0.06800
C2626       C  0.01606490  0.84532792  0.72664023    -0.03400
Br2627     Br  0.03356523  0.81587826  0.74623079    -0.01900
Br2628     Br  0.96880999  0.83029105  0.75835289    -0.02000
Br2629     Br  0.03546972  0.90148891  0.66443984    -0.01900
Br2630     Br  0.96792952  0.90670684  0.66900891    -0.01900
C2631       C  0.82032239  0.89088010  0.57996586    -0.03000
C2632       C  0.82986985  0.90649152  0.60307966     0.06600
C2633       C  0.82861671  0.93525504  0.60016868    -0.03200
C2634       C  0.81730365  0.94737919  0.57625362    -0.03200
C2635       C  0.80213335  0.93213950  0.55683980     0.06800
C2636       C  0.80644022  0.90349645  0.55747927    -0.03400
Br2637     Br  0.79696858  0.88137376  0.52601772    -0.01900
Br2638     Br  0.82650784  0.85188417  0.57752816    -0.02000
Br2639     Br  0.83089285  0.98217684  0.56519428    -0.01900
Br2640     Br  0.84142645  0.95914306  0.62865593    -0.01900
C2641       C  0.91163791  0.78404368  0.77058355    -0.03000
C2642       C  0.90117876  0.81047442  0.77673221     0.06600
C2643       C  0.89725841  0.81724428  0.80464811    -0.03200
C2644       C  0.89809168  0.79665535  0.82506698    -0.03200
C2645       C  0.90504648  0.76905352  0.81825852     0.06800
C2646       C  0.91377618  0.76375483  0.79100190    -0.03400
Br2647     Br  0.93075061  0.72922191  0.78134664    -0.01900
Br2648     Br  0.92578103  0.77604314  0.73432972    -0.02000
Br2649     Br  0.88859888  0.80720022  0.86203250    -0.01900
Br2650     Br  0.89179568  0.85489925  0.81536636    -0.01900
C2651       C  0.80952439  0.86979818  0.78929260    -0.03000
C2652       C  0.80929671  0.88569445  0.76567086     0.06600
C2653       C  0.78915045  0.90655535  0.76335457    -0.03200
C2654       C  0.77083219  0.91230223  0.78513126    -0.03200
C2655       C  0.77190475  0.89699052  0.80940847     0.06800
C2656       C  0.79278077  0.87675327  0.81179239    -0.03400
Br2657     Br  0.80119596  0.85943845  0.84584573    -0.01900
Br2658     Br  0.82917931  0.83562871  0.78886889    -0.02000
Br2659     Br  0.74519309  0.94238275  0.78227263    -0.01900
Br2660     Br  0.78433822  0.92599869  0.72975507    -0.01900
C2661       C  0.51842777  0.62445810  0.81402319    -0.03000
C2662       C  0.53483180  0.62761757  0.79055736     0.06600
C2663       C  0.52233091  0.62428416  0.76461347    -0.03200
C2664       C  0.49347834  0.62488441  0.76210069    -0.03200
C2665       C  0.47693726  0.62445864  0.78567457     0.06800
C2666       C  0.48973301  0.62140100  0.81135659    -0.03400
Br2667     Br  0.46880058  0.60856561  0.84180281    -0.01900
Br2668     Br  0.53541973  0.62096710  0.84944371    -0.02000
Br2669     Br  0.47670694  0.62438965  0.72636204    -0.01900
Br2670     Br  0.54419370  0.61388839  0.73326385    -0.01900
C2671       C  0.72358601  0.67051713  0.86300333    -0.03000
C2672       C  0.72164737  0.64958518  0.84312168     0.06600
C2673       C  0.74683741  0.63694711  0.83468502    -0.03200
C2674       C  0.77173743  0.64415095  0.84740264    -0.03200
C2675       C  0.77374377  0.66851381  0.86286761     0.06800
C2676       C  0.74906138  0.68246729  0.86940092    -0.03400
Br2677     Br  0.74889135  0.71762171  0.88750623    -0.01900
Br2678     Br  0.69471605  0.67604653  0.88881162    -0.02000
Br2679     Br  0.80069116  0.61704051  0.84787707    -0.01900
Br2680     Br  0.74943598  0.60859428  0.80695039    -0.01900
C2681       C  0.65455111  0.72711302  0.86531817    -0.03000
C2682       C  0.65082389  0.71909675  0.83782613     0.06600
C2683       C  0.66047680  0.73644888  0.81721337    -0.03200
C2684       C  0.67317049  0.76156969  0.82394367    -0.03200
C2685       C  0.67595968  0.76991375  0.85184704     0.06800
C2686       C  0.66961613  0.75066137  0.87193261    -0.03400
Br2687     Br  0.68533951  0.75310598  0.90805958    -0.01900
Br2688     Br  0.63529677  0.70909336  0.89412382    -0.02000
Br2689     Br  0.69017988  0.78165918  0.79510141    -0.01900
Br2690     Br  0.65513693  0.72662926  0.77936595    -0.01900
C2691       C  0.81217891  0.61294922  0.51002474    -0.03000
C2692       C  0.79159137  0.62695310  0.52476344     0.06600
C2693       C  0.77149743  0.64201871  0.51052933    -0.03200
C2694       C  0.77357139  0.64549119  0.48212232    -0.03200
C2695       C  0.79542892  0.63320467  0.46753202     0.06800
C2696       C  0.81440685  0.61640265  0.48154493    -0.03400
Br2697     Br  0.84455136  0.59926703  0.46218086    -0.01900
Br2698     Br  0.83707178  0.58871553  0.52865677    -0.02000
Br2699     Br  0.74535112  0.66593451  0.46342648    -0.01900
Br2700     Br  0.73944534  0.65552993  0.52958535    -0.01900
C2701       C  0.82219948  0.65480248  0.74916245    -0.03000
C2702       C  0.83155186  0.63006812  0.73708739     0.06600
C2703       C  0.84718329  0.61188138  0.75269804    -0.03200
C2704       C  0.85513242  0.61904252  0.77944843    -0.03200
C2705       C  0.84744293  0.64454766  0.79121415     0.06800
C2706       C  0.83069572  0.66233380  0.77577011    -0.03400
Br2707     Br  0.81879576  0.69697974  0.79069367    -0.01900
Br2708     Br  0.79582372  0.67758752  0.73032940    -0.02000
Br2709     Br  0.87874915  0.59403898  0.79817618    -0.01900
Br2710     Br  0.85911522  0.57750256  0.73689411    -0.01900
C2711       C  0.79842432  0.74274817  0.65989507    -0.03000
C2712       C  0.81415318  0.72098730  0.66980082     0.06600
C2713       C  0.83366516  0.72572731  0.69065728    -0.03200
C2714       C  0.83746127  0.75220550  0.70033270    -0.03200
C2715       C  0.82749410  0.77399354  0.68494986     0.06800
C2716       C  0.80703034  0.76938510  0.66499287    -0.03400
Br2717     Br  0.79412628  0.79744076  0.64084014    -0.01900
Br2718     Br  0.76558144  0.73598423  0.63936891    -0.02000
Br2719     Br  0.85621900  0.75878760  0.73427460    -0.01900
Br2720     Br  0.85952137  0.69852384  0.70243728    -0.01900
C2721       C  0.73510003  0.61830367  0.70996179    -0.03000
C2722       C  0.73085802  0.60954389  0.68302399     0.06600
C2723       C  0.70455923  0.59869897  0.67635641    -0.03200
C2724       C  0.68273011  0.60040431  0.69561852    -0.03200
C2725       C  0.68713612  0.61261534  0.72169539     0.06800
C2726       C  0.71332869  0.62407144  0.72712501    -0.03400
Br2727     Br  0.72216736  0.64797300  0.75786316    -0.01900
Br2728     Br  0.76794711  0.60829598  0.72869376    -0.02000
Br2729     Br  0.64703008  0.58671734  0.68535014    -0.01900
Br2730     Br  0.69907483  0.57669498  0.64375781    -0.01900
C2731       C  0.50907233  0.80224395  0.65582299    -0.03000
C2732       C  0.52567981  0.80034298  0.63185168     0.06600
C2733       C  0.51316075  0.80668134  0.60613037    -0.03200
C2734       C  0.48457957  0.81086226  0.60431631    -0.03200
C2735       C  0.46828870  0.81002409  0.62777735     0.06800
C2736       C  0.48088264  0.80844129  0.65359914    -0.03400
Br2737     Br  0.45972407  0.81579162  0.68615524    -0.01900
Br2738     Br  0.52349022  0.79701302  0.69240631    -0.02000
Br2739     Br  0.46727727  0.81978449  0.56994986    -0.01900
Br2740     Br  0.53388101  0.81092496  0.57267264    -0.01900
C2741       C  0.63748339  0.81527326  0.51586320    -0.03000
C2742       C  0.63047893  0.79115192  0.52918513     0.06600
C2743       C  0.62539278  0.76765161  0.51312971    -0.03200
C2744       C  0.62703014  0.76893408  0.48414645    -0.03200
C2745       C  0.63734969  0.79258095  0.47141238     0.06800
C2746       C  0.64522844  0.81454044  0.48822737    -0.03400
Br2747     Br  0.67352949  0.83862238  0.47647275    -0.01900
Br2748     Br  0.62753427  0.84960098  0.53235361    -0.02000
Br2749     Br  0.61753360  0.73763911  0.46218929    -0.01900
Br2750     Br  0.61571781  0.73419216  0.53089169    -0.01900
C2751       C  0.63847240  0.82308746  0.74598992    -0.03000
C2752       C  0.65511174  0.83301629  0.72485356     0.06600
C2753       C  0.67819593  0.84901674  0.73075015    -0.03200
C2754       C  0.68616364  0.85306030  0.75781581    -0.03200
C2755       C  0.66921335  0.84400024  0.77914665     0.06800
C2756       C  0.64527489  0.82903668  0.77317988    -0.03400
Br2757     Br  0.62066376  0.81771694  0.80174521    -0.01900
Br2758     Br  0.60427053  0.80489731  0.73759421    -0.02000
Br2759     Br  0.72070437  0.87017159  0.76540677    -0.01900
Br2760     Br  0.69759809  0.86777076  0.70229062    -0.01900
C2761       C  0.73501031  0.82246509  0.66691953    -0.03000
C2762       C  0.72779726  0.83022945  0.64016776     0.06600
C2763       C  0.73972226  0.85344075  0.62891032    -0.03200
C2764       C  0.75384758  0.87176619  0.64551288    -0.03200
C2765       C  0.76362449  0.86300260  0.67078692     0.06800
C2766       C  0.75409254  0.83810878  0.68172393    -0.03400
Br2767     Br  0.76824812  0.82473742  0.71606666    -0.01900
Br2768     Br  0.71970905  0.78975591  0.68240023    -0.02000
Br2769     Br  0.76368911  0.90701950  0.63167780    -0.01900
Br2770     Br  0.74434726  0.85619262  0.59045877    -0.01900
C2771       C  0.68585042  0.88372662  0.56214980    -0.03000
C2772       C  0.66574538  0.88820399  0.58221280     0.06600
C2773       C  0.65969518  0.91541736  0.59037163    -0.03200
C2774       C  0.67573582  0.93746936  0.58121255    -0.03200
C2775       C  0.69751236  0.93279319  0.56273134     0.06800
C2776       C  0.70147463  0.90568540  0.55241296    -0.03400
Br2777     Br  0.72741756  0.89704615  0.52404518    -0.01900
Br2778     Br  0.69317968  0.84714551  0.54845775    -0.02000
Br2779     Br  0.66641651  0.97418176  0.59281199    -0.01900
Br2780     Br  0.62788120  0.92290746  0.61251695    -0.01900
C2781       C  0.58616857  0.70703133  0.69437047    -0.03000
C2782       C  0.60966383  0.71750853  0.68130637     0.06600
C2783       C  0.63569197  0.70964979  0.69171800    -0.03200
C2784       C  0.63815239  0.69079837  0.71330791    -0.03200
C2785       C  0.61494308  0.68026226  0.72669003     0.06800
C2786       C  0.58879148  0.68940520  0.71732483    -0.03400
Br2787     Br  0.55665516  0.68213534  0.73869147    -0.01900
Br2788     Br  0.55034335  0.71936317  0.68279084    -0.02000
Br2789     Br  0.67398667  0.68046941  0.72469982    -0.01900
Br2790     Br  0.66877079  0.72619955  0.67781688    -0.01900
C2791       C  0.67570648  0.69702532  0.61207247    -0.03000
C2792       C  0.68237008  0.72441324  0.60605198     0.06600
C2793       C  0.70781617  0.72903366  0.59300732    -0.03200
C2794       C  0.72760605  0.70786905  0.59025964    -0.03200
C2795       C  0.72293853  0.68172471  0.60134359     0.06800
C2796       C  0.69604888  0.67609591  0.61046755    -0.03400
Br2797     Br  0.68662803  0.63990239  0.62054192    -0.01900
Br2798     Br  0.63855658  0.68768949  0.62169124    -0.02000
Br2799     Br  0.76092168  0.71451251  0.56992231    -0.01900
Br2800     Br  0.71478216  0.76352100  0.57602964    -0.01900
C2801       C  0.29257916  0.09585082  0.98795176    -0.03000
C2802       C  0.28726871  0.12047966  0.97389980     0.06600
C2803       C  0.28127668  0.14422686  0.98940405    -0.03200
C2804       C  0.28209732  0.14378310  0.01817928    -0.03200
C2805       C  0.28833531  0.11949422  0.03229882     0.06800
C2806       C  0.29325766  0.09545151  0.01698332    -0.03400
Br2807     Br  0.30147522  0.06210631  0.03600304    -0.01900
Br2808     Br  0.29964789  0.06271459  0.96778939    -0.02000
Br2809     Br  0.27476135  0.17721845  0.03763640    -0.01900
Br2810     Br  0.27069848  0.17775597  0.97139575    -0.01900
C2811       C  0.26498523  0.97742074  0.87581287    -0.03000
C2812       C  0.28610401  0.96108762  0.88706346     0.06600
C2813       C  0.30738452  0.97385617  0.90207133    -0.03200
C2814       C  0.30891200  0.00251125  0.90374188    -0.03200
C2815       C  0.28913270  0.01901008  0.89042543     0.06800
C2816       C  0.26656576  0.00615832  0.87728842    -0.03400
Br2817     Br  0.23922120  0.02720532  0.85792085    -0.01900
Br2818     Br  0.23518587  0.96090990  0.85550749    -0.02000
Br2819     Br  0.33907586  0.01878814  0.92366969    -0.01900
Br2820     Br  0.33522083  0.95210674  0.92001978    -0.01900
C2821       C  0.12219565  0.01466918  0.68721534    -0.03000
C2822       C  0.13559196  0.02760059  0.70939347     0.06600
C2823       C  0.14684553  0.01165207  0.73049206    -0.03200
C2824       C  0.14450417  0.98311097  0.72958587    -0.03200
C2825       C  0.13248052  0.97002934  0.70675443     0.06800
C2826       C  0.12083654  0.98593846  0.68575153    -0.03400
Br2827     Br  0.10374211  0.96843347  0.65459858    -0.01900
Br2828     Br  0.10638529  0.03626149  0.65844195    -0.02000
Br2829     Br  0.15511216  0.96235323  0.76118892    -0.01900
Br2830     Br  0.16478558  0.02880774  0.76132747    -0.01900
C2831       C  0.24620914  0.08489154  0.78369448    -0.03000
C2832       C  0.24238888  0.08843053  0.81210708     0.06600
C2833       C  0.21540540  0.09385436  0.82184445    -0.03200
C2834       C  0.19328076  0.09777917  0.80352323    -0.03200
C2835       C  0.19749458  0.09682013  0.77503472     0.06800
C2836       C  0.22395546  0.08907846  0.76530691    -0.03400
Br2837     Br  0.22978333  0.08330419  0.72664961    -0.01900
Br2838     Br  0.28220670  0.07602786  0.76971051    -0.02000
Br2839     Br  0.15747795  0.10603236  0.81791529    -0.01900
Br2840     Br  0.20832518  0.09657467  0.86076763    -0.01900
C2841       C  0.16173545  0.27871708  0.98413036    -0.03000
C2842       C  0.14209726  0.29367153  0.96879211     0.06600
C2843       C  0.12177680  0.30855209  0.98352036    -0.03200
C2844       C  0.11991251  0.30706194  0.01247035    -0.03200
C2845       C  0.13921885  0.29164681  0.02794536     0.06800
C2846       C  0.16018028  0.27749274  0.01315993    -0.03400
Br2847     Br  0.18600676  0.25402543  0.03181627    -0.01900
Br2848     Br  0.19094260  0.25896425  0.96575739    -0.02000
Br2849     Br  0.09027465  0.32674838  0.03024483    -0.01900
Br2850     Br  0.09732833  0.33319110  0.96440461    -0.01900
C2851       C  0.20962280  0.22292460  0.86121520    -0.03000
C2852       C  0.18875070  0.22597268  0.88116991     0.06600
C2853       C  0.18827416  0.20664675  0.90275350    -0.03200
C2854       C  0.20998624  0.18745438  0.90584042    -0.03200
C2855       C  0.23283961  0.18771412  0.88817775     0.06800
C2856       C  0.23232649  0.20540596  0.86562937    -0.03400
Br2857     Br  0.26253100  0.20520425  0.84012453    -0.01900
Br2858     Br  0.20515276  0.23919758  0.82573629    -0.02000
Br2859     Br  0.20875979  0.16096168  0.93472876    -0.01900
Br2860     Br  0.15773248  0.20471308  0.92775505    -0.01900
C2861       C  0.10682051  0.19782565  0.82188157    -0.03000
C2862       C  0.10795383  0.22544335  0.81425815     0.06600
C2863       C  0.10153025  0.23236694  0.78685539    -0.03200
C2864       C  0.09595246  0.21188824  0.76718972    -0.03200
C2865       C  0.09962961  0.18406852  0.77382379     0.06800
C2866       C  0.10213710  0.17733602  0.80188557    -0.03400
Br2867     Br  0.09486833  0.14068659  0.81372673    -0.01900
Br2868     Br  0.11325809  0.18768033  0.85938166    -0.02000
Br2869     Br  0.08019094  0.22267496  0.73252654    -0.01900
Br2870     Br  0.09961170  0.27011458  0.77572908    -0.01900
C2871       C  0.41046918  0.48078676  0.78273512    -0.03000
C2872       C  0.38607380  0.46586794  0.78666528     0.06600
C2873       C  0.36154128  0.48058246  0.79245022    -0.03200
C2874       C  0.36112782  0.50933443  0.79280332    -0.03200
C2875       C  0.38549099  0.52431544  0.78950477     0.06800
C2876       C  0.41026263  0.50980077  0.78452338    -0.03400
Br2877     Br  0.44411235  0.52967213  0.78141626    -0.01900
Br2878     Br  0.44433529  0.46130417  0.77632323    -0.02000
Br2879     Br  0.32627053  0.52803812  0.79561992    -0.01900
Br2880     Br  0.32771162  0.46200147  0.80044199    -0.01900
C2881       C  0.36634417  0.25168914  0.81872572    -0.03000
C2882       C  0.35775362  0.27387826  0.83555134     0.06600
C2883       C  0.34183647  0.26825305  0.85920772    -0.03200
C2884       C  0.33677404  0.24118975  0.86678533    -0.03200
C2885       C  0.34560562  0.21942853  0.84985853     0.06800
C2886       C  0.35867968  0.22496186  0.82497495    -0.03400
Br2887     Br  0.36534143  0.19611523  0.79861113    -0.01900
Br2888     Br  0.39254434  0.25570642  0.78973301    -0.02000
Br2889     Br  0.31922750  0.23439202  0.90159644    -0.01900
Br2890     Br  0.32643111  0.29685988  0.88220838    -0.01900
C2891       C  0.27529963  0.32517318  0.83450275    -0.03000
C2892       C  0.28132767  0.35287869  0.83087811     0.06600
C2893       C  0.26293829  0.37285541  0.84080937    -0.03200
C2894       C  0.23873184  0.36499894  0.85408747    -0.03200
C2895       C  0.23407276  0.33723420  0.86031590     0.06800
C2896       C  0.25320278  0.31749493  0.85118885    -0.03400
Br2897     Br  0.25051794  0.28028944  0.86250957    -0.01900
Br2898     Br  0.29558338  0.29799052  0.81421489    -0.02000
Br2899     Br  0.21335324  0.39320354  0.86503404    -0.01900
Br2900     Br  0.27177663  0.41123124  0.83839015    -0.01900
C2901       C  0.22898183  0.48704559  0.60847329    -0.03000
C2902       C  0.21492026  0.47113750  0.62749047     0.06600
C2903       C  0.20545299  0.48316370  0.65228746    -0.03200
C2904       C  0.20836286  0.51130549  0.65697448    -0.03200
C2905       C  0.21873848  0.52773169  0.63600134     0.06800
C2906       C  0.23102822  0.51527285  0.61270933    -0.03400
Br2907     Br  0.25154202  0.53650567  0.58662676    -0.01900
Br2908     Br  0.24346972  0.47056135  0.57548491    -0.02000
Br2909     Br  0.19677396  0.52705825  0.69160146    -0.01900
Br2910     Br  0.18778818  0.46177237  0.68007223    -0.01900
C2911       C  0.22832143  0.37762822  0.51547689    -0.03000
C2912       C  0.20446407  0.37301000  0.53100237     0.06600
C2913       C  0.17898276  0.37169979  0.51759487    -0.03200
C2914       C  0.17805785  0.36797242  0.48927878    -0.03200
C2915       C  0.20152731  0.37270148  0.47350397     0.06800
C2916       C  0.22639405  0.37947743  0.48676500    -0.03400
Br2917     Br  0.25759372  0.39130224  0.46588978    -0.01900
Br2918     Br  0.26334530  0.38171186  0.53344277    -0.02000
Br2919     Br  0.14470123  0.35567077  0.47287918    -0.01900
Br2920     Br  0.14573183  0.38235553  0.53602788    -0.01900
C2921       C  0.15733593  0.37581575  0.74277199    -0.03000
C2922       C  0.17159786  0.35696793  0.72613039     0.06600
C2923       C  0.18217302  0.33276421  0.73772484    -0.03200
C2924       C  0.17979840  0.32845515  0.76602586    -0.03200
C2925       C  0.16549974  0.34745544  0.78285936     0.06800
C2926       C  0.15574743  0.37179530  0.77097037    -0.03400
Br2927     Br  0.14011106  0.40069374  0.79204530    -0.01900
Br2928     Br  0.13560041  0.40512741  0.72688994    -0.02000
Br2929     Br  0.19766447  0.29685362  0.78144450    -0.01900
Br2930     Br  0.19800188  0.30401749  0.71526726    -0.01900
C2931       C  0.15667672  0.24473247  0.61788783    -0.03000
C2932       C  0.15650490  0.26728898  0.63565450     0.06600
C2933       C  0.14921406  0.26313131  0.66353828    -0.03200
C2934       C  0.14914845  0.23694137  0.67459773    -0.03200
C2935       C  0.14966202  0.21406893  0.65698565     0.06800
C2936       C  0.15372921  0.21828575  0.62830380    -0.03400
Br2937     Br  0.15551910  0.18883635  0.60158142    -0.01900
Br2938     Br  0.15516851  0.24983733  0.57887936    -0.02000
Br2939     Br  0.14871189  0.23375533  0.71407179    -0.01900
Br2940     Br  0.13175522  0.29147348  0.68555666    -0.01900
C2941       C  0.27844172  0.42160660  0.69688261    -0.03000
C2942       C  0.26407678  0.39726809  0.69055484     0.06600
C2943       C  0.27090229  0.37355156  0.70517307    -0.03200
C2944       C  0.29069201  0.37423457  0.72623590    -0.03200
C2945       C  0.30683323  0.39758956  0.73094986     0.06800
C2946       C  0.30012119  0.42160972  0.71650702    -0.03400
Br2947     Br  0.32123524  0.45420191  0.72274989    -0.01900
Br2948     Br  0.27008634  0.45443404  0.67714754    -0.02000
Br2949     Br  0.29330701  0.34397228  0.75074245    -0.01900
Br2950     Br  0.25385118  0.33948163  0.69589181    -0.01900
C2951       C  0.35555258  0.21066545  0.51777778    -0.03000
C2952       C  0.37849310  0.22025426  0.53286147     0.06600
C2953       C  0.40038968  0.23203870  0.51813304    -0.03200
C2954       C  0.39973447  0.23315759  0.48889144    -0.03200
C2955       C  0.37716464  0.22243254  0.47399315     0.06800
C2956       C  0.35480863  0.21190432  0.48899493    -0.03400
Br2957     Br  0.32231820  0.19856576  0.47028872    -0.01900
Br2958     Br  0.32441226  0.19491697  0.53595983    -0.02000
Br2959     Br  0.43051289  0.24755308  0.46922395    -0.01900
Br2960     Br  0.43209396  0.24469970  0.53800196    -0.01900
C2961       C  0.36372737  0.14409139  0.74604043    -0.03000
C2962       C  0.34356910  0.15656867  0.72975052     0.06600
C2963       C  0.31668477  0.15922766  0.74047472    -0.03200
C2964       C  0.31079485  0.15067163  0.76738409    -0.03200
C2965       C  0.33049405  0.13552784  0.78196026     0.06800
C2966       C  0.35599524  0.12991548  0.76942025    -0.03400
Br2967     Br  0.37819998  0.09903234  0.77956156    -0.01900
Br2968     Br  0.40212831  0.14656553  0.73770210    -0.02000
Br2969     Br  0.27477055  0.15616404  0.78271739    -0.01900
Br2970     Br  0.28788196  0.17424983  0.71856717    -0.01900
C2971       C  0.25449750  0.18970560  0.65671528    -0.03000
C2972       C  0.26854370  0.17481701  0.63619152     0.06600
C2973       C  0.25317336  0.15605238  0.62004758    -0.03200
C2974       C  0.22531808  0.15119573  0.62592443    -0.03200
C2975       C  0.21347219  0.16121819  0.65032969     0.06800
C2976       C  0.22803964  0.18148230  0.66521770    -0.03400
Br2977     Br  0.21200337  0.19863451  0.69699127    -0.01900
Br2978     Br  0.27017260  0.22303444  0.67099410    -0.02000
Br2979     Br  0.20392717  0.13085974  0.59991639    -0.01900
Br2980     Br  0.26955692  0.13482887  0.59067279    -0.01900
C2981       C  0.27547096  0.25742441  0.59636485    -0.03000
C2982       C  0.30255502  0.26198890  0.60562872     0.06600
C2983       C  0.30917304  0.28851374  0.61565063    -0.03200
C2984       C  0.28860206  0.30875073  0.61909164    -0.03200
C2985       C  0.26111202  0.30355979  0.61143162     0.06800
C2986       C  0.25537535  0.27840509  0.59832174    -0.03400
Br2987     Br  0.22148644  0.27413956  0.57900200    -0.01900
Br2988     Br  0.26533617  0.22258344  0.58106334    -0.02000
Br2989     Br  0.29872844  0.34400960  0.63372000    -0.01900
Br2990     Br  0.34700063  0.29847223  0.62285586    -0.01900
C2991       C  0.42815954  0.28216514  0.72835547    -0.03000
C2992       C  0.40388194  0.29536236  0.73742994     0.06600
C2993       C  0.37830410  0.28310188  0.73161704    -0.03200
C2994       C  0.37681514  0.25930426  0.71560720    -0.03200
C2995       C  0.40067599  0.24815316  0.70348875     0.06800
C2996       C  0.42656942  0.25860223  0.71132983    -0.03400
Br2997     Br  0.45973975  0.24105294  0.69874327    -0.01900
Br2998     Br  0.46343808  0.29700499  0.73800331    -0.02000
Br2999     Br  0.34176517  0.24113252  0.71133239    -0.01900
Br3000     Br  0.34502656  0.29710218  0.74781035    -0.01900
C3001       C  0.89135858  0.28273192  0.98768167    -0.03000
C3002       C  0.86947096  0.29301644  0.97184297     0.06600
C3003       C  0.84604324  0.30379871  0.98589673    -0.03200
C3004       C  0.84635116  0.30777007  0.01448745    -0.03200
C3005       C  0.86817750  0.29742710  0.03034024     0.06800
C3006       C  0.89023189  0.28397924  0.01659368    -0.03400
Br3007     Br  0.91767255  0.26401743  0.03672445    -0.01900
Br3008     Br  0.92131187  0.26332169  0.97014048    -0.02000
Br3009     Br  0.81661785  0.32819754  0.03143705    -0.01900
Br3010     Br  0.81148999  0.31077932  0.96774065    -0.01900
C3011       C  0.99056620  0.27294887  0.84853117    -0.03000
C3012       C  0.97542534  0.29036221  0.86613916     0.06600
C3013       C  0.98993466  0.30713244  0.88483310    -0.03200
C3014       C  0.01880287  0.30952745  0.88291488    -0.03200
C3015       C  0.03387161  0.29305992  0.86426467     0.06800
C3016       C  0.01949647  0.27404846  0.84777979    -0.03400
Br3017     Br  0.03912141  0.24760685  0.82565471    -0.01900
Br3018     Br  0.97204741  0.24467270  0.82812767    -0.02000
Br3019     Br  0.03730206  0.33683183  0.90476521    -0.01900
Br3020     Br  0.97077873  0.32615817  0.91393198    -0.01900
C3021       C  0.74328777  0.12917865  0.98488609    -0.03000
C3022       C  0.72296293  0.11447750  0.97057165     0.06600
C3023       C  0.70020882  0.10432263  0.98522548    -0.03200
C3024       C  0.69601185  0.11178298  0.01266832    -0.03200
C3025       C  0.71488664  0.12892843  0.02611261     0.06800
C3026       C  0.73869868  0.13737477  0.01221933    -0.03400
Br3027     Br  0.76527120  0.16004414  0.03048544    -0.01900
Br3028     Br  0.77806858  0.13668499  0.96790936    -0.02000
Br3029     Br  0.66353134  0.09941170  0.03149772    -0.01900
Br3030     Br  0.67498430  0.07927120  0.96800221    -0.01900
C3031       C  0.73775869  0.01458389  0.88449876    -0.03000
C3032       C  0.71388677  0.03034884  0.89098782     0.06600
C3033       C  0.69036472  0.01579822  0.90004569    -0.03200
C3034       C  0.68999520  0.98676299  0.89990238    -0.03200
C3035       C  0.71337884  0.97147781  0.89211379     0.06800
C3036       C  0.73737871  0.98566029  0.88510691    -0.03400
Br3037     Br  0.76919867  0.96499315  0.87321823    -0.01900
Br3038     Br  0.77105984  0.03139988  0.87218923    -0.02000
Br3039     Br  0.65681162  0.96755766  0.90895657    -0.01900
Br3040     Br  0.65795820  0.03504261  0.91245029    -0.01900
C3041       C  0.80394597  0.22252742  0.91460247    -0.03000
C3042       C  0.81370732  0.22999727  0.88847663     0.06600
C3043       C  0.79872175  0.22176453  0.86514599    -0.03200
C3044       C  0.77556259  0.20484365  0.86778793    -0.03200
C3045       C  0.76612941  0.19677148  0.89397449     0.06800
C3046       C  0.77940107  0.20746738  0.91731330    -0.03400
Br3047     Br  0.76299978  0.20366111  0.95282126    -0.01900
Br3048     Br  0.82377686  0.23309930  0.94705287    -0.02000
Br3049     Br  0.75593664  0.19389794  0.83507982    -0.01900
Br3050     Br  0.81011512  0.23351594  0.82927899    -0.01900
C3051       C  0.98767056  0.13539106  0.72899202    -0.03000
C3052       C  0.97227738  0.12468071  0.70699837     0.06600
C3053       C  0.98639681  0.11000923  0.68616158    -0.03200
C3054       C  0.01544794  0.10699067  0.68697638    -0.03200
C3055       C  0.03100198  0.11883143  0.70843174     0.06800
C3056       C  0.01662313  0.13271479  0.72965036    -0.03400
Br3057     Br  0.03609309  0.14864165  0.76008650    -0.01900
Br3058     Br  0.96886566  0.15180750  0.75971269    -0.02000
Br3059     Br  0.03367967  0.08439557  0.66005352    -0.01900
Br3060     Br  0.96595735  0.09395481  0.65627256    -0.01900
C3061       C  0.85162552  0.00739198  0.72749534    -0.03000
C3062       C  0.86668769  0.02197676  0.70781421     0.06600
C3063       C  0.88264993  0.00757279  0.68833029    -0.03200
C3064       C  0.88278805  0.97887165  0.68802452    -0.03200
C3065       C  0.86678978  0.96449307  0.70704032     0.06800
C3066       C  0.85269795  0.97882630  0.72773632    -0.03400
Br3067     Br  0.83899036  0.95964205  0.75909602    -0.01900
Br3068     Br  0.83038418  0.02594934  0.75529100    -0.02000
Br3069     Br  0.90566470  0.95938940  0.66208967    -0.01900
Br3070     Br  0.90323928  0.02698011  0.66105167    -0.01900
C3071       C  0.81526199  0.04250066  0.62166114    -0.03000
C3072       C  0.82907704  0.06729378  0.61705166     0.06600
C3073       C  0.82704085  0.07923907  0.59088846    -0.03200
C3074       C  0.81379999  0.06550307  0.56919761    -0.03200
C3075       C  0.79882033  0.04140914  0.57400126     0.06800
C3076       C  0.79897815  0.03053823  0.60087107    -0.03400
Br3077     Br  0.77649256  0.99955205  0.61023013    -0.01900
Br3078     Br  0.81721054  0.02534678  0.65699660    -0.02000
Br3079     Br  0.81335786  0.08256457  0.53390032    -0.01900
Br3080     Br  0.83669879  0.11698939  0.58553703    -0.01900
C3081       C  0.78728089  0.08859298  0.76373473    -0.03000
C3082       C  0.81461389  0.09180269  0.77365484     0.06600
C3083       C  0.81913190  0.08781939  0.80179452    -0.03200
C3084       C  0.79665600  0.08874054  0.82011008    -0.03200
C3085       C  0.76914428  0.08837594  0.81022418     0.06800
C3086       C  0.76491920  0.08560709  0.78191074    -0.03400
Br3087     Br  0.72837462  0.07912712  0.76796813    -0.01900
Br3088     Br  0.78007149  0.08661692  0.72513119    -0.02000
Br3089     Br  0.80419663  0.09242994  0.85871245    -0.01900
Br3090     Br  0.85561635  0.08023569  0.81534212    -0.01900
C3091       C  0.90690372  0.20228927  0.76766316    -0.03000
C3092       C  0.89076141  0.17883541  0.77211698     0.06600
C3093       C  0.87835747  0.17611219  0.79806865    -0.03200
C3094       C  0.88269891  0.19559233  0.81926007    -0.03200
C3095       C  0.89645089  0.22011476  0.81377628     0.06800
C3096       C  0.90798743  0.22348798  0.78740905    -0.03400
Br3097     Br  0.92385603  0.25801159  0.77705155    -0.01900
Br3098     Br  0.92791898  0.20618023  0.73460435    -0.02000
Br3099     Br  0.86797802  0.18949577  0.85520606    -0.01900
Br3100     Br  0.85197075  0.14822549  0.80358292    -0.01900
C3101       C  0.50796988  0.22648908  0.62180602    -0.03000
C3102       C  0.52329135  0.20237905  0.61621070     0.06600
C3103       C  0.50882134  0.17941865  0.60627973    -0.03200
C3104       C  0.47962388  0.17920456  0.60568482    -0.03200
C3105       C  0.46417974  0.20207566  0.61505556     0.06800
C3106       C  0.47886621  0.22646032  0.62102285    -0.03400
Br3107     Br  0.46009184  0.26078018  0.62798271    -0.01900
Br3108     Br  0.52634613  0.26026797  0.63095966    -0.02000
Br3109     Br  0.46104711  0.14842174  0.58928709    -0.01900
Br3110     Br  0.52910233  0.14943916  0.59042990    -0.01900
C3111       C  0.64474415  0.22932673  0.51428618    -0.03000
C3112       C  0.62669121  0.21166728  0.52824045     0.06600
C3113       C  0.60841128  0.19543412  0.51276822    -0.03200
C3114       C  0.60898686  0.19599648  0.48384494    -0.03200
C3115       C  0.62797046  0.21283779  0.46997153     0.06800
C3116       C  0.64536588  0.22991926  0.48553284    -0.03400
Br3117     Br  0.66926648  0.25574327  0.46787940    -0.01900
Br3118     Br  0.66785915  0.25458922  0.53395541    -0.02000
Br3119     Br  0.58470483  0.17210917  0.46363338    -0.01900
Br3120     Br  0.58334350  0.17129594  0.53102690    -0.01900
C3121       C  0.73987485  0.17960731  0.65265288    -0.03000
C3122       C  0.72003733  0.15839993  0.64928321     0.06600
C3123       C  0.72878534  0.13087952  0.65141473    -0.03200
C3124       C  0.75665067  0.12482432  0.65554325    -0.03200
C3125       C  0.77590153  0.14589323  0.65911101     0.06800
C3126       C  0.76764441  0.17308641  0.65685084    -0.03400
Br3127     Br  0.79497949  0.20145090  0.65826797    -0.01900
Br3128     Br  0.73051758  0.21808563  0.65403963    -0.02000
Br3129     Br  0.76808598  0.08727100  0.65442100    -0.01900
Br3130     Br  0.70331792  0.10055741  0.65019192    -0.01900
C3131       C  0.62606184  0.15690604  0.73874955    -0.03000
C3132       C  0.64701470  0.16683020  0.72183351     0.06600
C3133       C  0.67447689  0.16544632  0.73114818    -0.03200
C3134       C  0.68102938  0.15396086  0.75686859    -0.03200
C3135       C  0.65989097  0.14434724  0.77392982     0.06800
C3136       C  0.63245957  0.14523404  0.76410052    -0.03400
Br3137     Br  0.60305246  0.12843509  0.78395369    -0.01900
Br3138     Br  0.58813708  0.15782413  0.72660679    -0.02000
Br3139     Br  0.71887682  0.15245430  0.76872869    -0.01900
Br3140     Br  0.70283452  0.18198709  0.71035372    -0.01900
C3141       C  0.70733698  0.09019887  0.56655543    -0.03000
C3142       C  0.69316744  0.06907507  0.55281334     0.06600
C3143       C  0.66438673  0.07209967  0.54967417    -0.03200
C3144       C  0.65053683  0.09598919  0.55980506    -0.03200
C3145       C  0.66564491  0.11852624  0.57047771     0.06800
C3146       C  0.69479644  0.11552733  0.57178016    -0.03400
Br3147     Br  0.71995495  0.14572560  0.57755432    -0.01900
Br3148     Br  0.74432515  0.08461659  0.57987249    -0.02000
Br3149     Br  0.61116057  0.09830626  0.55686953    -0.01900
Br3150     Br  0.64411339  0.04406116  0.53085412    -0.01900
C3151       C  0.51460164  0.37684209  0.81727666    -0.03000
C3152       C  0.53007999  0.36811168  0.79446789     0.06600
C3153       C  0.51752888  0.36881676  0.76841380    -0.03200
C3154       C  0.48887934  0.37322300  0.76575691    -0.03200
C3155       C  0.47260660  0.37898581  0.78922509     0.06800
C3156       C  0.48641807  0.38325859  0.81442491    -0.03400
Br3157     Br  0.46787859  0.40169705  0.84408172    -0.01900
Br3158     Br  0.53229714  0.38151726  0.85233593    -0.02000
Br3159     Br  0.47307969  0.37223452  0.72947793    -0.01900
Br3160     Br  0.54005882  0.36690721  0.73603873    -0.01900
C3161       C  0.64571026  0.47556302  0.76502117    -0.03000
C3162       C  0.63747271  0.46314458  0.78957666     0.06600
C3163       C  0.62575985  0.47928518  0.81054429    -0.03200
C3164       C  0.62312939  0.50768273  0.80728389    -0.03200
C3165       C  0.63364981  0.52027792  0.78370883     0.06800
C3166       C  0.64512449  0.50408258  0.76265425    -0.03400
Br3167     Br  0.65877463  0.52076732  0.72973536    -0.01900
Br3168     Br  0.65401571  0.45388260  0.73305922    -0.02000
Br3169     Br  0.60537313  0.52914811  0.83534403    -0.01900
Br3170     Br  0.61320527  0.46239071  0.84374466    -0.01900
C3171       C  0.75205638  0.30825805  0.86859463    -0.03000
C3172       C  0.77307915  0.32540966  0.85869336     0.06600
C3173       C  0.76633685  0.34800301  0.84249817    -0.03200
C3174       C  0.73918140  0.35240856  0.83472984    -0.03200
C3175       C  0.71830524  0.33524804  0.84427543     0.06800
C3176       C  0.72462243  0.31344896  0.86153062    -0.03400
Br3177     Br  0.69576093  0.29069474  0.87528169    -0.01900
Br3178     Br  0.75996402  0.27788644  0.89218168    -0.02000
Br3179     Br  0.73088375  0.38354757  0.81260638    -0.01900
Br3180     Br  0.79324160  0.37523600  0.83339295    -0.01900
C3181       C  0.65131986  0.23489506  0.87445019    -0.03000
C3182       C  0.66704802  0.21960010  0.85488266     0.06600
C3183       C  0.66593986  0.22804669  0.82716894    -0.03200
C3184       C  0.64887567  0.25002366  0.81917939    -0.03200
C3185       C  0.63354431  0.26488124  0.83860975     0.06800
C3186       C  0.63434164  0.25663324  0.86602385    -0.03400
Br3187     Br  0.61159060  0.27503126  0.89247501    -0.01900
Br3188     Br  0.65306715  0.22853746  0.91364027    -0.02000
Br3189     Br  0.64586893  0.25939773  0.78121153    -0.01900
Br3190     Br  0.68940743  0.21185815  0.79981962    -0.01900
C3191       C  0.58067227  0.27390312  0.70609412    -0.03000
C3192       C  0.60328585  0.26696082  0.68911377     0.06600
C3193       C  0.62931843  0.27803151  0.69619157    -0.03200
C3194       C  0.63222211  0.29673115  0.71827120    -0.03200
C3195       C  0.60907580  0.30596254  0.73301022     0.06800
C3196       C  0.58359520  0.29315445  0.72774958    -0.03400
Br3197     Br  0.55332716  0.29895525  0.75245117    -0.01900
Br3198     Br  0.54543296  0.25684471  0.70064876    -0.02000
Br3199     Br  0.66846647  0.30812424  0.72973602    -0.01900
Br3200     Br  0.66208313  0.26591952  0.67777090    -0.01900
C3201       C  0.77194780  0.48720134  0.64659566    -0.03000
C3202       C  0.78974270  0.47126003  0.63009012     0.06600
C3203       C  0.81026316  0.48432424  0.61472399    -0.03200
C3204       C  0.81177021  0.51301389  0.61462724    -0.03200
C3205       C  0.79509144  0.52875211  0.63247540     0.06800
C3206       C  0.77568480  0.51551506  0.64904427    -0.03400
Br3207     Br  0.75318915  0.53589714  0.67460556    -0.01900
Br3208     Br  0.74084750  0.47081766  0.66439240    -0.02000
Br3209     Br  0.83702199  0.53038863  0.59004972    -0.01900
Br3210     Br  0.83802182  0.46325197  0.59574180    -0.01900
C3211       C  0.77573177  0.35761873  0.50924601    -0.03000
C3212       C  0.79528145  0.37194899  0.52507648     0.06600
C3213       C  0.81096595  0.39242195  0.51203790    -0.03200
C3214       C  0.80913675  0.39623749  0.48333898    -0.03200
C3215       C  0.78969498  0.38173618  0.46757533     0.06800
C3216       C  0.77199049  0.36353589  0.48126656    -0.03400
Br3217     Br  0.74129158  0.34715563  0.46283309    -0.01900
Br3218     Br  0.75226556  0.33086139  0.52598196    -0.02000
Br3219     Br  0.83181861  0.42298975  0.46578499    -0.01900
Br3220     Br  0.83446046  0.41615253  0.53320888    -0.01900
C3221       C  0.81130532  0.34582850  0.74220667    -0.03000
C3222       C  0.82864124  0.36352376  0.72787887     0.06600
C3223       C  0.85307641  0.37270213  0.74012283    -0.03200
C3224       C  0.86209578  0.36153131  0.76458558    -0.03200
C3225       C  0.84483045  0.34424850  0.77927527     0.06800
C3226       C  0.81934441  0.33625054  0.76811397    -0.03400
Br3227     Br  0.79619455  0.31133173  0.78750189    -0.01900
Br3228     Br  0.77628520  0.33585004  0.72681895    -0.02000
Br3229     Br  0.89990662  0.36675611  0.77509794    -0.01900
Br3230     Br  0.87451482  0.40113847  0.72458224    -0.01900
C3231       C  0.84923782  0.25806563  0.63122652    -0.03000
C3232       C  0.84600988  0.27765676  0.65235158     0.06600
C3233       C  0.85218552  0.27028904  0.67943712    -0.03200
C3234       C  0.85999757  0.24325202  0.68552239    -0.03200
C3235       C  0.86424976  0.22393599  0.66426567     0.06800
C3236       C  0.85895348  0.23164185  0.63705112    -0.03400
Br3237     Br  0.86511057  0.20606471  0.60743020    -0.01900
Br3238     Br  0.84083059  0.26722916  0.59392141    -0.02000
Br3239     Br  0.86115129  0.23220366  0.72314647    -0.01900
Br3240     Br  0.84943479  0.29698979  0.70836703    -0.01900
C3241       C  0.72764949  0.40143955  0.70689066    -0.03000
C3242       C  0.72501691  0.38599492  0.68248623     0.06600
C3243       C  0.70055927  0.37118135  0.67844181    -0.03200
C3244       C  0.67833850  0.37357437  0.69690977    -0.03200
C3245       C  0.68195577  0.38686260  0.72224160     0.06800
C3246       C  0.70664932  0.40137873  0.72671962    -0.03400
Br3247     Br  0.71195559  0.42255173  0.75952709    -0.01900
Br3248     Br  0.76077872  0.42171689  0.71450418    -0.02000
Br3249     Br  0.64295275  0.35899137  0.68719353    -0.01900
Br3250     Br  0.70006948  0.34197552  0.65272350    -0.01900
C3251       C  0.69593304  0.32363476  0.59091380    -0.03000
C3252       C  0.72377713  0.31537882  0.59142215     0.06600
C3253       C  0.72987743  0.28725739  0.58889309    -0.03200
C3254       C  0.70914446  0.26784275  0.59208806    -0.03200
C3255       C  0.68216894  0.27628544  0.59854952     0.06800
C3256       C  0.67517134  0.30417236  0.59593147    -0.03400
Br3257     Br  0.63782388  0.31608913  0.60154789    -0.01900
Br3258     Br  0.68620626  0.36132586  0.58510040    -0.02000
Br3259     Br  0.71754337  0.22977584  0.58536707    -0.01900
Br3260     Br  0.76662130  0.27511654  0.57979599    -0.01900
C3261       C  0.57719340  0.66985490  0.94085047    -0.03000
C3262       C  0.56585238  0.69551140  0.93464072     0.06600
C3263       C  0.56406021  0.70326876  0.90691079    -0.03200
C3264       C  0.57061599  0.68484511  0.88581369    -0.03200
C3265       C  0.58551598  0.66094983  0.89185571     0.06800
C3266       C  0.58820076  0.65327350  0.91969702    -0.03400
Br3267     Br  0.60662587  0.62000089  0.92936699    -0.01900
Br3268     Br  0.57823812  0.65766762  0.97827851    -0.02000
Br3269     Br  0.56086164  0.69445708  0.84876581    -0.01900
Br3270     Br  0.56030982  0.74085590  0.89691825    -0.01900
C3271       C  0.59170918  0.79039247  0.93743023    -0.03000
C3272       C  0.56370619  0.79837710  0.93515066     0.06600
C3273       C  0.55742043  0.82429332  0.92417744    -0.03200
C3274       C  0.57867076  0.84040367  0.91325376    -0.03200
C3275       C  0.60551350  0.82985089  0.91225171     0.06800
C3276       C  0.61226506  0.80724790  0.92778276    -0.03400
Br3277     Br  0.64961593  0.80268685  0.94025011    -0.01900
Br3278     Br  0.60413798  0.75700796  0.95354815    -0.02000
Br3279     Br  0.57304334  0.87869940  0.90707563    -0.01900
Br3280     Br  0.52046903  0.83846427  0.92570751    -0.01900
C3281       C  0.46896872  0.69626791  0.89334929    -0.03000
C3282       C  0.46265846  0.69153725  0.92120322     0.06600
C3283       C  0.44605739  0.66846419  0.92702260    -0.03200
C3284       C  0.43282194  0.65368694  0.90570278    -0.03200
C3285       C  0.43672352  0.66089278  0.87794015     0.06800
C3286       C  0.45651534  0.68103709  0.87208095    -0.03400
Br3287     Br  0.46802229  0.68749893  0.83471569    -0.01900
Br3288     Br  0.49614915  0.72231429  0.88322833    -0.02000
Br3289     Br  0.40834998  0.62435192  0.91554033    -0.01900
Br3290     Br  0.44083623  0.65596798  0.96400404    -0.01900
C3291       C  0.43245337  0.79748924  0.91931617    -0.03000
C3292       C  0.43469778  0.80034434  0.94787459     0.06600
C3293       C  0.41744992  0.81961435  0.96083950    -0.03200
C3294       C  0.39381115  0.82968162  0.94728338    -0.03200
C3295       C  0.38912708  0.82303174  0.91952103     0.06800
C3296       C  0.41002293  0.80888763  0.90510635    -0.03400
Br3297     Br  0.40805822  0.80358432  0.86615263    -0.01900
Br3298     Br  0.46166739  0.78062530  0.89912053    -0.02000
Br3299     Br  0.36882610  0.85383092  0.96624144    -0.01900
Br3300     Br  0.42990999  0.83727476  0.99353600    -0.01900
C3301       C  0.46646327  0.68970167  0.09762865    -0.03000
C3302       C  0.45546430  0.69067002  0.07081642     0.06600
C3303       C  0.43205776  0.67487573  0.06446835    -0.03200
C3304       C  0.41976946  0.65861651  0.08458961    -0.03200
C3305       C  0.42973206  0.65898476  0.11186335     0.06800
C3306       C  0.45419776  0.67337706  0.11774410    -0.03400
Br3307     Br  0.47066226  0.67273338  0.15368071    -0.01900
Br3308     Br  0.49767058  0.71181986  0.10789958    -0.02000
Br3309     Br  0.38850018  0.63636012  0.07442268    -0.01900
Br3310     Br  0.41363308  0.67858954  0.02961701    -0.01900
C3311       C  0.42904339  0.81781697  0.05976161    -0.03000
C3312       C  0.42302017  0.79548390  0.04204081     0.06600
C3313       C  0.39543279  0.79086273  0.03404327    -0.03200
C3314       C  0.37409789  0.80581700  0.04634955    -0.03200
C3315       C  0.38017791  0.82739642  0.06475251     0.06800
C3316       C  0.40772810  0.83460053  0.06957489    -0.03400
Br3317     Br  0.41646694  0.86741878  0.09005799    -0.01900
Br3318     Br  0.46591934  0.82563145  0.07237421    -0.02000
Br3319     Br  0.33675398  0.79463859  0.03887777    -0.01900
Br3320     Br  0.38602395  0.76526064  0.00506751    -0.01900
C3321       C  0.59951232  0.68805620  0.08779596    -0.03000
C3322       C  0.58852935  0.66641861  0.10316120     0.06600
C3323       C  0.56230307  0.65670052  0.09555680    -0.03200
C3324       C  0.54669771  0.66985813  0.07480321    -0.03200
C3325       C  0.55611940  0.69423709  0.06292424     0.06800
C3326       C  0.58332157  0.70230370  0.06869478    -0.03400
Br3327     Br  0.60009224  0.73173317  0.04921977    -0.01900
Br3328     Br  0.63727293  0.69834010  0.09151457    -0.02000
Br3329     Br  0.51366623  0.65329041  0.06114480    -0.01900
Br3330     Br  0.54896991  0.62384522  0.11146868    -0.01900
C3331       C  0.59104473  0.81587535  0.03612862    -0.03000
C3332       C  0.56914433  0.80138357  0.04775123     0.06600
C3333       C  0.56315599  0.80640476  0.07563277    -0.03200
C3334       C  0.57960243  0.82422599  0.09165664    -0.03200
C3335       C  0.60430560  0.83529963  0.08096498     0.06800
C3336       C  0.60862422  0.83237705  0.05240518    -0.03400
Br3337     Br  0.63620537  0.85375630  0.03435988    -0.01900
Br3338     Br  0.59534579  0.81552038  0.99743406    -0.02000
Br3339     Br  0.56555157  0.83528342  0.12698641    -0.01900
Br3340     Br  0.53248427  0.78830297  0.09251257    -0.01900
C3341       C  0.92858848  0.55071838  0.67583926    -0.03000
C3342       C  0.93999774  0.56150394  0.70033175     0.06600
C3343       C  0.93104815  0.58759295  0.70897959    -0.03200
C3344       C  0.91078034  0.60215332  0.69415345    -0.03200
C3345       C  0.89710384  0.59002187  0.67129418     0.06800
C3346       C  0.90729963  0.56471971  0.66167293    -0.03400
Br3347     Br  0.89387664  0.55035402  0.62767725    -0.01900
Br3348     Br  0.94251085  0.51670534  0.66124514    -0.02000
Br3349     Br  0.90166053  0.63850607  0.70699300    -0.01900
Br3350     Br  0.94365419  0.60245603  0.74321366    -0.01900
C3351       C  0.92895678  0.59267862  0.84214801    -0.03000
C3352       C  0.93729717  0.61943025  0.83494914     0.06600
C3353       C  0.96100990  0.62215145  0.81888310    -0.03200
C3354       C  0.97333302  0.59904513  0.80651271    -0.03200
C3355       C  0.96266167  0.57248797  0.81037165     0.06800
C3356       C  0.94128760  0.56951031  0.82957086    -0.03400
Br3357     Br  0.92795854  0.53345514  0.83782198    -0.01900
Br3358     Br  0.89881302  0.58679627  0.86691664    -0.02000
Br3359     Br  0.00232213  0.60575261  0.78154167    -0.01900
Br3360     Br  0.97708660  0.65783849  0.81393222    -0.01900
C3361       C  0.90144854  0.46138192  0.69473172    -0.03000
C3362       C  0.92882459  0.45102755  0.69455841     0.06600
C3363       C  0.93632648  0.43272156  0.67327620    -0.03200
C3364       C  0.91566219  0.41953092  0.65795803    -0.03200
C3365       C  0.88776162  0.42499037  0.66341944     0.06800
C3366       C  0.88096960  0.44836294  0.67914639    -0.03400
Br3367     Br  0.84333721  0.46080253  0.68279875    -0.01900
Br3368     Br  0.89085057  0.49315809  0.71619374    -0.02000
Br3369     Br  0.92544559  0.39555112  0.62818472    -0.01900
Br3370     Br  0.97432437  0.42630880  0.66382120    -0.01900
C3371       C  0.95688514  0.42102208  0.83333280    -0.03000
C3372       C  0.94018339  0.43884289  0.81794388     0.06600
C3373       C  0.91193567  0.43378600  0.81685870    -0.03200
C3374       C  0.90078856  0.41049118  0.82951553    -0.03200
C3375       C  0.91823804  0.38992602  0.84105914     0.06800
C3376       C  0.94643635  0.39608049  0.84325693    -0.03400
Br3377     Br  0.97132215  0.36989830  0.85844780    -0.01900
Br3378     Br  0.99384987  0.43156258  0.84193234    -0.02000
Br3379     Br  0.86152594  0.40835596  0.82931478    -0.01900
Br3380     Br  0.88886859  0.45779441  0.79542162    -0.01900
C3381       C  0.05413924  0.40815041  0.69100046    -0.03000
C3382       C  0.05092637  0.43670163  0.68870043     0.06600
C3383       C  0.06551227  0.44968107  0.66766701    -0.03200
C3384       C  0.08817514  0.43631185  0.65503726    -0.03200
C3385       C  0.09582298  0.40935485  0.66286027     0.06800
C3386       C  0.07689031  0.39469024  0.67919458    -0.03400
Br3387     Br  0.08107634  0.35613852  0.68675479    -0.01900
Br3388     Br  0.02578558  0.38652605  0.70773713    -0.02000
Br3389     Br  0.10754601  0.45529636  0.62655714    -0.01900
Br3390     Br  0.05236615  0.48408763  0.65374739    -0.01900
C3391       C  0.04407911  0.40208604  0.80047275    -0.03000
C3392       C  0.05567289  0.42873638  0.80013799     0.06600
C3393       C  0.07864460  0.43366472  0.81692888    -0.03200
C3394       C  0.08995200  0.41255379  0.83342118    -0.03200
C3395       C  0.07909530  0.38561985  0.83288594     0.06800
C3396       C  0.05558234  0.38106737  0.81658703    -0.03400
Br3397     Br  0.03843991  0.34562759  0.81654711    -0.01900
Br3398     Br  0.01239837  0.39310032  0.77827196    -0.02000
Br3399     Br  0.12225072  0.42078739  0.85410405    -0.01900
Br3400     Br  0.09487005  0.46944709  0.81705993    -0.01900
C3401       C  0.10060440  0.53131873  0.68231636    -0.03000
C3402       C  0.07494827  0.54197385  0.69140314     0.06600
C3403       C  0.06736525  0.56829140  0.68194632    -0.03200
C3404       C  0.08707030  0.58525217  0.66900791    -0.03200
C3405       C  0.11314824  0.57456895  0.66071583     0.06800
C3406       C  0.11757657  0.54650338  0.66464566    -0.03400
Br3407     Br  0.14378692  0.52783324  0.64188858    -0.01900
Br3408     Br  0.11376378  0.49609760  0.69381383    -0.02000
Br3409     Br  0.07783557  0.62339177  0.66478479    -0.01900
Br3410     Br  0.03044641  0.58222953  0.68748341    -0.01900
C3411       C  0.06356937  0.56763907  0.82133989    -0.03000
C3412       C  0.06096776  0.57148776  0.79282545     0.06600
C3413       C  0.06801876  0.59710441  0.78202405    -0.03200
C3414       C  0.07225266  0.61968456  0.79923769    -0.03200
C3415       C  0.07630921  0.61591620  0.82779470     0.06800
C3416       C  0.07277288  0.58927619  0.83846803    -0.03400
Br3417     Br  0.08013023  0.58184342  0.87652344    -0.01900
Br3418     Br  0.05441740  0.53313800  0.83739988    -0.02000
Br3419     Br  0.07332128  0.65507970  0.78161397    -0.01900
Br3420     Br  0.07340947  0.60163891  0.74316620    -0.01900
C3421       C  0.90531524  0.68551747  0.46542476    -0.03000
C3422       C  0.93327970  0.68522425  0.45803114     0.06600
C3423       C  0.94092161  0.67224873  0.43316833    -0.03200
C3424       C  0.92055498  0.66243388  0.41492070    -0.03200
C3425       C  0.89226683  0.66660060  0.42045333     0.06800
C3426       C  0.88492917  0.67706298  0.44669141    -0.03400
Br3427     Br  0.84716852  0.68242113  0.45747047    -0.01900
Br3428     Br  0.89470090  0.69801672  0.50149506    -0.02000
Br3429     Br  0.93205572  0.64256038  0.38281378    -0.01900
Br3430     Br  0.97898408  0.67053006  0.42199413    -0.01900
C3431       C  0.93825457  0.83211319  0.40941431    -0.03000
C3432       C  0.92514141  0.81784423  0.38758386     0.06600
C3433       C  0.92461450  0.78898303  0.38842841    -0.03200
C3434       C  0.93520427  0.77504803  0.41114406    -0.03200
C3435       C  0.94952026  0.78897436  0.43229874     0.06800
C3436       C  0.95092766  0.81772425  0.43121508    -0.03400
Br3437     Br  0.97109529  0.83758135  0.45892588    -0.01900
Br3438     Br  0.94065131  0.87137894  0.40915819    -0.02000
Br3439     Br  0.92729393  0.73665929  0.41357851    -0.01900
Br3440     Br  0.90897396  0.76715753  0.35896199    -0.01900
C3441       C  0.92956964  0.67247465  0.56169293    -0.03000
C3442       C  0.94143216  0.69614303  0.57297358     0.06600
C3443       C  0.92905491  0.70890954  0.59576481    -0.03200
C3444       C  0.90350642  0.70011268  0.60522325    -0.03200
C3445       C  0.89077704  0.67717211  0.59315499     0.06800
C3446       C  0.90442193  0.66279448  0.57195289    -0.03400
Br3447     Br  0.88964448  0.62929820  0.55772897    -0.01900
Br3448     Br  0.94865670  0.65278146  0.53306115    -0.02000
Br3449     Br  0.88523957  0.72140435  0.63340711    -0.01900
Br3450     Br  0.94608572  0.73939022  0.61379961    -0.01900
C3451       C  0.90344266  0.78181326  0.57171826    -0.03000
C3452       C  0.92960944  0.79004004  0.56286651     0.06600
C3453       C  0.94260213  0.81213653  0.57608556    -0.03200
C3454       C  0.93138924  0.82349669  0.60022763    -0.03200
C3455       C  0.90591856  0.81408646  0.61028299     0.06800
C3456       C  0.89145539  0.79401752  0.59494142    -0.03400
Br3457     Br  0.85569243  0.78117296  0.60582820    -0.01900
Br3458     Br  0.88430204  0.75235925  0.55341040    -0.02000
Br3459     Br  0.95109795  0.85232338  0.61870014    -0.01900
Br3460     Br  0.97475557  0.82816728  0.55984946    -0.01900
C3461       C  0.08228815  0.67179815  0.45343052    -0.03000
C3462       C  0.07918836  0.70051224  0.45302658     0.06600
C3463       C  0.09348765  0.71571246  0.43317478    -0.03200
C3464       C  0.10790776  0.70225563  0.41246303    -0.03200
C3465       C  0.11329669  0.67406683  0.41447648     0.06800
C3466       C  0.09979088  0.65869982  0.43447259    -0.03400
Br3467     Br  0.10260711  0.61945857  0.43357647    -0.01900
Br3468     Br  0.06425241  0.65032605  0.48088294    -0.02000
Br3469     Br  0.11793522  0.72310522  0.38057376    -0.01900
Br3470     Br  0.09538689  0.75513219  0.43372177    -0.01900
C3471       C  0.03933048  0.78512692  0.39834484    -0.03000
C3472       C  0.03977095  0.79656019  0.42500948     0.06600
C3473       C  0.05347669  0.82170146  0.42888925    -0.03200
C3474       C  0.06844444  0.83347052  0.40712363    -0.03200
C3475       C  0.07195275  0.81910046  0.38176062     0.06800
C3476       C  0.05776602  0.79405432  0.37832976    -0.03400
Br3477     Br  0.06543485  0.76862430  0.34872639    -0.01900
Br3478     Br  0.01253323  0.75778796  0.38801256    -0.02000
Br3479     Br  0.08466055  0.86889899  0.41384398    -0.01900
Br3480     Br  0.05194794  0.84077029  0.46372632    -0.01900
C3481       C  0.09426958  0.65904518  0.57296606    -0.03000
C3482       C  0.12093191  0.66978173  0.57073723     0.06600
C3483       C  0.12544793  0.69239459  0.55404360    -0.03200
C3484       C  0.10349064  0.70437167  0.53983730    -0.03200
C3485       C  0.07588396  0.69624962  0.54499500     0.06800
C3486       C  0.07160330  0.67280707  0.56126406    -0.03400
Br3487     Br  0.03521642  0.65986876  0.56966898    -0.01900
Br3488     Br  0.08905499  0.62498015  0.59154853    -0.02000
Br3489     Br  0.11294293  0.73146890  0.51302790    -0.01900
Br3490     Br  0.16137782  0.70917161  0.55289441    -0.01900
C3491       C  0.03364707  0.79956874  0.60442298    -0.03000
C3492       C  0.04400552  0.79797588  0.57742560     0.06600
C3493       C  0.07085668  0.80740094  0.57250792    -0.03200
C3494       C  0.08710001  0.81728319  0.59431679    -0.03200
C3495       C  0.07581597  0.82131968  0.62069619     0.06800
C3496       C  0.04901238  0.81188729  0.62566028    -0.03400
Br3497     Br  0.03349254  0.81420340  0.66176991    -0.01900
Br3498     Br  0.99877653  0.78395417  0.61310694    -0.02000
Br3499     Br  0.12625198  0.81908629  0.58921795    -0.01900
Br3500     Br  0.08694967  0.80414690  0.53652325    -0.01900
C3501       C  0.70849930  0.44901206  0.90494192    -0.03000
C3502       C  0.70644938  0.43855689  0.93204785     0.06600
C3503       C  0.68871002  0.41596924  0.93546001    -0.03200
C3504       C  0.67542212  0.40351668  0.91262687    -0.03200
C3505       C  0.67454500  0.41605632  0.88654066     0.06800
C3506       C  0.69155959  0.43911544  0.88317886    -0.03400
Br3507     Br  0.69307564  0.45655212  0.84791750    -0.01900
Br3508     Br  0.73710865  0.47417322  0.89554852    -0.02000
Br3509     Br  0.66552772  0.36598612  0.91630947    -0.01900
Br3510     Br  0.68198541  0.40108406  0.97126721    -0.01900
C3511       C  0.80700370  0.38974345  0.93192292    -0.03000
C3512       C  0.83064000  0.39254614  0.91610253     0.06600
C3513       C  0.84360737  0.41824374  0.91494657    -0.03200
C3514       C  0.83079905  0.44138395  0.92690719    -0.03200
C3515       C  0.80736938  0.43799591  0.94344809     0.06800
C3516       C  0.79818914  0.41112303  0.94851935    -0.03400
Br3517     Br  0.77613847  0.40075047  0.97928801    -0.01900
Br3518     Br  0.78281670  0.35917447  0.92736851    -0.02000
Br3519     Br  0.84660844  0.47698405  0.92239726    -0.01900
Br3520     Br  0.87920476  0.42159798  0.89838529    -0.01900
C3521       C  0.71939695  0.54590372  0.89939169    -0.03000
C3522       C  0.70546172  0.54059086  0.92451728     0.06600
C3523       C  0.67634818  0.54314324  0.92480581    -0.03200
C3524       C  0.66228699  0.55399023  0.90192504    -0.03200
C3525       C  0.67667374  0.56069851  0.87802969     0.06800
C3526       C  0.70453447  0.55372630  0.87605509    -0.03400
Br3527     Br  0.72227517  0.55381343  0.84085724    -0.01900
Br3528     Br  0.75912192  0.54536515  0.89557754    -0.02000
Br3529     Br  0.62289782  0.55692022  0.90188321    -0.01900
Br3530     Br  0.65496401  0.53107295  0.95558664    -0.01900
C3531       C  0.84808593  0.59501546  0.94242544    -0.03000
C3532       C  0.83417002  0.61921351  0.93480232     0.06600
C3533       C  0.80605799  0.62146361  0.94150659    -0.03200
C3534       C  0.79111942  0.59856843  0.94980081    -0.03200
C3535       C  0.80482311  0.57435522  0.95867019     0.06800
C3536       C  0.83381776  0.57322299  0.95529452    -0.03400
Br3537     Br  0.85446608  0.54230049  0.96822047    -0.01900
Br3538     Br  0.88734232  0.59335456  0.93848190    -0.02000
Br3539     Br  0.75141010  0.60132666  0.94548906    -0.01900
Br3540     Br  0.78715229  0.65618402  0.94175594    -0.01900
C3541       C  0.67086715  0.45570753  0.07473181    -0.03000
C3542       C  0.69448639  0.44637528  0.06071191     0.06600
C3543       C  0.70285473  0.41919322  0.06483135    -0.03200
C3544       C  0.69238197  0.40404014  0.08663843    -0.03200
C3545       C  0.66977591  0.41369001  0.10210548     0.06800
C3546       C  0.65834553  0.43934481  0.09508876    -0.03400
Br3547     Br  0.62506269  0.45170572  0.11235542    -0.01900
Br3548     Br  0.65384112  0.48920148  0.06362802    -0.02000
Br3549     Br  0.71221968  0.37166319  0.09674111    -0.01900
Br3550     Br  0.72587002  0.40063947  0.03866259    -0.01900
C3551       C  0.82656574  0.41596314  0.04341571    -0.03000
C3552       C  0.80186898  0.42818255  0.05303120     0.06600
C3553       C  0.79289492  0.42109104  0.07939176    -0.03200
C3554       C  0.80614414  0.40040907  0.09441991    -0.03200
C3555       C  0.82983380  0.38677107  0.08438761     0.06800
C3556       C  0.84042826  0.39544116  0.05896379    -0.03400
Br3557     Br  0.87359354  0.37879242  0.04526674    -0.01900
Br3558     Br  0.84179350  0.42785920  0.00932288    -0.02000
Br3559     Br  0.79134332  0.39203334  0.12956079    -0.01900
Br3560     Br  0.76360827  0.44117745  0.09675988    -0.01900
C3561       C  0.69707246  0.53242050  0.10643834    -0.03000
C3562       C  0.69284468  0.54171071  0.07937984     0.06600
C3563       C  0.67026375  0.55951047  0.07464616    -0.03200
C3564       C  0.65444302  0.56991337  0.09686204    -0.03200
C3565       C  0.66219396  0.56445031  0.12436215     0.06800
C3566       C  0.68278317  0.54434444  0.12860747    -0.03400
Br3567     Br  0.69323076  0.53336782  0.16490973    -0.01900
Br3568     Br  0.72193551  0.50246138  0.11394437    -0.02000
Br3569     Br  0.62272199  0.59217870  0.08868107    -0.01900
Br3570     Br  0.66118681  0.57113157  0.03802360    -0.01900
C3571       C  0.82773236  0.57161760  0.06810871    -0.03000
C3572       C  0.80555458  0.57751259  0.05000158     0.06600
C3573       C  0.80269190  0.60493659  0.04124032    -0.03200
C3574       C  0.81961515  0.62602266  0.05204989    -0.03200
C3575       C  0.83914589  0.62076819  0.07309755     0.06800
C3576       C  0.84437433  0.59281781  0.07921066    -0.03400
Br3577     Br  0.87436444  0.58248941  0.10316293    -0.01900
Br3578     Br  0.83480426  0.53468244  0.08019992    -0.02000
Br3579     Br  0.81279927  0.66251010  0.03949016    -0.01900
Br3580     Br  0.77384703  0.61514731  0.01605721    -0.01900
C3581       C  0.41075581  0.92036976  0.72363914    -0.03000
C3582       C  0.42717056  0.93864896  0.70865061     0.06600
C3583       C  0.43379005  0.93169622  0.68132305    -0.03200
C3584       C  0.42815825  0.90548934  0.67075521    -0.03200
C3585       C  0.41384152  0.88612378  0.68654874     0.06800
C3586       C  0.40508447  0.89395634  0.71309655    -0.03400
Br3587     Br  0.38550724  0.86874504  0.73556000    -0.01900
Br3588     Br  0.39372593  0.93198869  0.75742794    -0.02000
Br3589     Br  0.44241748  0.89575659  0.63505921    -0.01900
Br3590     Br  0.44984045  0.95871898  0.65767460    -0.01900
C3591       C  0.42686666  0.93595025  0.82717552    -0.03000
C3592       C  0.44369963  0.92450584  0.80615274     0.06600
C3593       C  0.44030650  0.89627211  0.80005902    -0.03200
C3594       C  0.41822232  0.88136209  0.81149720    -0.03200
C3595       C  0.39993714  0.89387947  0.83043665     0.06800
C3596       C  0.40702602  0.92007374  0.84053027    -0.03400
Br3597     Br  0.39125674  0.93436035  0.87415242    -0.01900
Br3598     Br  0.42724452  0.97425456  0.83678757    -0.02000
Br3599     Br  0.41436494  0.84345258  0.80157506    -0.01900
Br3600     Br  0.46534962  0.87730942  0.77570593    -0.01900
C3601       C  0.55295633  0.89043661  0.67115934    -0.03000
C3602       C  0.58153137  0.88760136  0.66986470     0.06600
C3603       C  0.59808397  0.90954369  0.67936562    -0.03200
C3604       C  0.58587296  0.93349246  0.68993349    -0.03200
C3605       C  0.55761058  0.93415735  0.69545386     0.06800
C3606       C  0.54103398  0.91230480  0.68572004    -0.03400
Br3607     Br  0.50232870  0.90984093  0.69371332    -0.01900
Br3608     Br  0.53012265  0.86571147  0.65094001    -0.02000
Br3609     Br  0.60746344  0.96614450  0.69445395    -0.01900
Br3610     Br  0.63749142  0.90727228  0.68039846    -0.01900
C3611       C  0.55954446  0.90914561  0.81428582    -0.03000
C3612       C  0.56496945  0.93118861  0.79693326     0.06600
C3613       C  0.59297353  0.93863992  0.79324292    -0.03200
C3614       C  0.61392601  0.92788489  0.80995605    -0.03200
C3615       C  0.60822065  0.90664446  0.82812000     0.06800
C3616       C  0.58135710  0.89540993  0.82770856    -0.03400
Br3617     Br  0.57432771  0.85971784  0.84188435    -0.01900
Br3618     Br  0.52218144  0.89819364  0.82038751    -0.02000
Br3619     Br  0.65121051  0.94139271  0.80612023    -0.01900
Br3620     Br  0.60481138  0.96324498  0.76563410    -0.01900
C3621       C  0.44746141  0.10452779  0.68189246    -0.03000
C3622       C  0.41855680  0.10618766  0.68093706     0.06600
C3623       C  0.40346936  0.08546780  0.69423158    -0.03200
C3624       C  0.41704160  0.06280083  0.70611928    -0.03200
C3625       C  0.44589729  0.06299946  0.70986009     0.06800
C3626       C  0.46068263  0.08521784  0.69857876    -0.03400
Br3627     Br  0.49775763  0.09392497  0.70959018    -0.01900
Br3628     Br  0.46963062  0.12966605  0.66128045    -0.02000
Br3629     Br  0.39538478  0.03207247  0.71764015    -0.01900
Br3630     Br  0.36502077  0.08994359  0.70174312    -0.01900
C3631       C  0.42551476  0.10454361  0.82594111    -0.03000
C3632       C  0.40973305  0.08943226  0.84492531     0.06600
C3633       C  0.42180842  0.06533967  0.85542133    -0.03200
C3634       C  0.44561993  0.05422756  0.84303362    -0.03200
C3635       C  0.45522288  0.06479013  0.81811031     0.06800
C3636       C  0.44665792  0.09148155  0.81096728    -0.03400
Br3637     Br  0.46243561  0.11064695  0.78038041    -0.01900
Br3638     Br  0.41931155  0.14314511  0.82016759    -0.02000
Br3639     Br  0.46732781  0.02725744  0.86191056    -0.01900
Br3640     Br  0.40746646  0.04832770  0.88771088    -0.01900
C3641       C  0.59111285  0.06796396  0.71228955    -0.03000
C3642       C  0.56596067  0.05678897  0.70316103     0.06600
C3643       C  0.55653991  0.06309865  0.67667652    -0.03200
C3644       C  0.57001840  0.08321163  0.66116896    -0.03200
C3645       C  0.59403270  0.09575529  0.67121067     0.06800
C3646       C  0.60574156  0.08619087  0.69569709    -0.03400
Br3647     Br  0.64230037  0.09721383  0.70603983    -0.01900
Br3648     Br  0.60569368  0.05891351  0.74769862    -0.02000
Br3649     Br  0.55610761  0.09310481  0.62589218    -0.01900
Br3650     Br  0.52486120  0.04463687  0.66201477    -0.01900
C3651       C  0.62149476  0.03765372  0.83326594    -0.03000
C3652       C  0.62035665  0.06609243  0.83737713     0.06600
C3653       C  0.59467962  0.07950069  0.83487676    -0.03200
C3654       C  0.57358196  0.06681501  0.81988853    -0.03200
C3655       C  0.57656632  0.03915771  0.81237902     0.06800
C3656       C  0.59815740  0.02418838  0.82379195    -0.03400
Br3657     Br  0.59167810  0.98764875  0.83489668    -0.01900
Br3658     Br  0.65418181  0.01655679  0.84023949    -0.02000
Br3659     Br  0.54205792  0.08798766  0.80860226    -0.01900
Br3660     Br  0.58761675  0.11431984  0.85196336    -0.01900
C3661       C  0.34149906  0.55257706  0.89910701    -0.03000
C3662       C  0.32502873  0.56621525  0.87938915     0.06600
C3663       C  0.29847065  0.57474531  0.88737730    -0.03200
C3664       C  0.28991717  0.57256974  0.91471458    -0.03200
C3665       C  0.30464629  0.55633003  0.93312602     0.06800
C3666       C  0.33076355  0.54651617  0.92534425    -0.03400
Br3667     Br  0.35190274  0.52556639  0.95116159    -0.01900
Br3668     Br  0.37810926  0.54056878  0.88984252    -0.02000
Br3669     Br  0.25982908  0.59456706  0.92779858    -0.01900
Br3670     Br  0.27245202  0.58771896  0.86118316    -0.01900
C3671       C  0.18761904  0.56827380  0.95253753    -0.03000
C3672       C  0.20427394  0.55155266  0.93569898     0.06600
C3673       C  0.20670600  0.55821165  0.90787080    -0.03200
C3674       C  0.19625696  0.58336857  0.89853505    -0.03200
C3675       C  0.18523692  0.60291953  0.91725643     0.06800
C3676       C  0.17961071  0.59452407  0.94402553    -0.03400
Br3677     Br  0.15959340  0.61839797  0.96844704    -0.01900
Br3678     Br  0.17191494  0.55311542  0.98494334    -0.02000
Br3679     Br  0.19670810  0.58975294  0.85988953    -0.01900
Br3680     Br  0.22514840  0.53374257  0.88251348    -0.01900
C3681       C  0.31424645  0.41445953  0.93971620    -0.03000
C3682       C  0.30870216  0.44208288  0.93364617     0.06600
C3683       C  0.31934898  0.45316783  0.90960525    -0.03200
C3684       C  0.33709969  0.43763575  0.89297687    -0.03200
C3685       C  0.34028028  0.40923329  0.89713936     0.06800
C3686       C  0.32895773  0.39777649  0.92106306    -0.03400
Br3687     Br  0.33190832  0.35921235  0.92829439    -0.01900
Br3688     Br  0.29957949  0.39857576  0.97245102    -0.02000
Br3689     Br  0.35900499  0.45641584  0.86635507    -0.01900
Br3690     Br  0.30821748  0.48894758  0.89818869    -0.01900
C3691       C  0.17914094  0.43423276  0.94540200    -0.03000
C3692       C  0.20190065  0.42597953  0.96156248     0.06600
C3693       C  0.20629269  0.39756849  0.96503677    -0.03200
C3694       C  0.19298706  0.37851393  0.94784564    -0.03200
C3695       C  0.17241558  0.38727963  0.92933146     0.06800
C3696       C  0.16331162  0.41450567  0.93147681    -0.03400
Br3697     Br  0.12645031  0.42345576  0.92088307    -0.01900
Br3698     Br  0.16916170  0.47208266  0.94068598    -0.02000
Br3699     Br  0.20398513  0.34074167  0.95031092    -0.01900
Br3700     Br  0.22911812  0.38386754  0.99434666    -0.01900
C3701       C  0.32492053  0.44185753  0.12632304    -0.03000
C3702       C  0.34095207  0.41893894  0.11837872     0.06600
C3703       C  0.34595178  0.41449941  0.09048021    -0.03200
C3704       C  0.33115651  0.42905659  0.07057507    -0.03200
C3705       C  0.31210998  0.44972597  0.07853535     0.06800
C3706       C  0.31017606  0.45683189  0.10662904    -0.03400
Br3707     Br  0.28833208  0.48779824  0.11868276    -0.01900
Br3708     Br  0.32426280  0.45443508  0.16390596    -0.02000
Br3709     Br  0.33723780  0.41906403  0.03275176    -0.01900
Br3710     Br  0.37656244  0.39220076  0.07957173    -0.01900
C3711       C  0.22060606  0.40351575  0.07041416    -0.03000
C3712       C  0.20741913  0.42213530  0.05301100     0.06600
C3713       C  0.17953560  0.41808198  0.04609224    -0.03200
C3714       C  0.16516037  0.39555439  0.05682145    -0.03200
C3715       C  0.17915947  0.37595950  0.07281805     0.06800
C3716       C  0.20773171  0.37942489  0.07783302    -0.03400
Br3717     Br  0.23146219  0.35175102  0.09374397    -0.01900
Br3718     Br  0.25576319  0.41174190  0.08686047    -0.02000
Br3719     Br  0.12703927  0.39051412  0.04756679    -0.01900
Br3720     Br  0.16115217  0.44274709  0.02154450    -0.01900
C3721       C  0.30615054  0.57616263  0.06873677    -0.03000
C3722       C  0.31316930  0.54865108  0.06425225     0.06600
C3723       C  0.33162065  0.53603048  0.08235676    -0.03200
C3724       C  0.33855420  0.54888851  0.10736798    -0.03200
C3725       C  0.32815599  0.57517688  0.11348777     0.06800
C3726       C  0.31311072  0.58927680  0.09338991    -0.03400
Br3727     Br  0.30050421  0.62611792  0.09990573    -0.01900
Br3728     Br  0.28876990  0.59655212  0.04020063    -0.02000
Br3729     Br  0.36263970  0.53070349  0.13274246    -0.01900
Br3730     Br  0.35029983  0.50338498  0.07082730    -0.01900
C3731       C  0.19405871  0.62056954  0.04205861    -0.03000
C3732       C  0.17497412  0.61645691  0.06357966     0.06600
C3733       C  0.16793475  0.58939322  0.06984760    -0.03200
C3734       C  0.18406683  0.56730066  0.06011228    -0.03200
C3735       C  0.20529528  0.57166117  0.04073271     0.06800
C3736       C  0.20839710  0.59832057  0.03026074    -0.03400
Br3737     Br  0.23077159  0.60487126  0.99834222    -0.01900
Br3738     Br  0.20002520  0.65641627  0.02686609    -0.02000
Br3739     Br  0.17722827  0.53169165  0.07524928    -0.01900
Br3740     Br  0.13452453  0.58200249  0.08913854    -0.01900
C3741       C  0.45577921  0.32172247  0.92614466    -0.03000
C3742       C  0.45401431  0.29303461  0.92868539     0.06600
C3743       C  0.44125063  0.27827341  0.90725953    -0.03200
C3744       C  0.43488705  0.29094125  0.88230825    -0.03200
C3745       C  0.43525469  0.31984853  0.87986779     0.06800
C3746       C  0.44442394  0.33508377  0.90295387    -0.03400
Br3747     Br  0.44171929  0.37418354  0.90358306    -0.01900
Br3748     Br  0.47508305  0.34293879  0.95337981    -0.02000
Br3749     Br  0.42635955  0.26693908  0.85208852    -0.01900
Br3750     Br  0.42987306  0.24079279  0.91229359    -0.01900
C3751       C  0.43798794  0.17095228  0.94268285    -0.03000
C3752       C  0.43133982  0.18954493  0.96418814     0.06600
C3753       C  0.40343440  0.19152719  0.97236530    -0.03200
C3754       C  0.38298385  0.17618364  0.95900048    -0.03200
C3755       C  0.38892873  0.16126797  0.93480581     0.06800
C3756       C  0.41690645  0.15751616  0.92769853    -0.03400
Br3757     Br  0.42699211  0.13498425  0.89683206    -0.01900
Br3758     Br  0.47560516  0.16534722  0.93135655    -0.02000
Br3759     Br  0.34673656  0.17522297  0.97506851    -0.01900
Br3760     Br  0.39149330  0.21659507  0.00069086    -0.01900
C3761       C  0.54423565  0.29933810  0.91035136    -0.03000
C3762       C  0.55511718  0.30086109  0.93736576     0.06600
C3763       C  0.57204819  0.32320774  0.94414628    -0.03200
C3764       C  0.58150444  0.34044669  0.92335190    -0.03200
C3765       C  0.57656411  0.33391454  0.89567274     0.06800
C3766       C  0.55564569  0.31508266  0.88938900    -0.03400
Br3767     Br  0.54391852  0.30834351  0.85208954    -0.01900
Br3768     Br  0.51425802  0.27579523  0.90047548    -0.02000
Br3769     Br  0.59822853  0.37470958  0.93254826    -0.01900
Br3770     Br  0.58115190  0.33143255  0.98177669    -0.01900
C3771       C  0.56578124  0.19441893  0.90536402    -0.03000
C3772       C  0.56038160  0.19196396  0.93364147     0.06600
C3773       C  0.57592734  0.17261323  0.94830137    -0.03200
C3774       C  0.59912837  0.15940573  0.93648944    -0.03200
C3775       C  0.60657396  0.16410521  0.90873456     0.06800
C3776       C  0.58866578  0.18114286  0.89306107    -0.03400
Br3777     Br  0.59466459  0.18793167  0.85445666    -0.01900
Br3778     Br  0.54144936  0.21527139  0.88249464    -0.02000
Br3779     Br  0.62008265  0.13510045  0.95955088    -0.01900
Br3780     Br  0.56276733  0.16104316  0.98338082    -0.01900
C3781       C  0.59165943  0.32357115  0.08851948    -0.03000
C3782       C  0.57508841  0.34104014  0.10506989     0.06600
C3783       C  0.54771255  0.34509773  0.09623880    -0.03200
C3784       C  0.53726878  0.33050648  0.07322440    -0.03200
C3785       C  0.55172970  0.30768100  0.06270661     0.06800
C3786       C  0.57951489  0.30494289  0.07003585    -0.03400
Br3787     Br  0.60154044  0.27602615  0.05444736    -0.01900
Br3788     Br  0.63079252  0.32713219  0.08677964    -0.02000
Br3789     Br  0.50542820  0.34385709  0.05429583    -0.01900
Br3790     Br  0.52464977  0.37091108  0.11471270    -0.01900
C3791       C  0.60792475  0.20004042  0.02929593    -0.03000
C3792       C  0.58084384  0.19515819  0.03883420     0.06600
C3793       C  0.57677246  0.17218649  0.05589656    -0.03200
C3794       C  0.59927175  0.15584515  0.06414352    -0.03200
C3795       C  0.62651966  0.16421925  0.05921906     0.06800
C3796       C  0.63057074  0.18566403  0.04035223    -0.03400
Br3797     Br  0.66716662  0.19590144  0.02893974    -0.01900
Br3798     Br  0.61484000  0.22537846  0.99997462    -0.02000
Br3799     Br  0.59201920  0.12161856  0.08157327    -0.01900
Br3800     Br  0.54105071  0.16328863  0.07055943    -0.01900
C3801       C  0.46237431  0.31863159  0.13002614    -0.03000
C3802       C  0.43529248  0.32923482  0.12747826     0.06600
C3803       C  0.42222328  0.32668255  0.10164845    -0.03200
C3804       C  0.43668251  0.31692323  0.07856738    -0.03200
C3805       C  0.46177566  0.30281022  0.08201521     0.06800
C3806       C  0.47440123  0.30358246  0.10822765    -0.03400
Br3807     Br  0.50767107  0.28319143  0.11531291    -0.01900
Br3808     Br  0.48294489  0.32294202  0.16373520    -0.02000
Br3809     Br  0.41975311  0.32012296  0.04291879    -0.01900
Br3810     Br  0.38288832  0.32792134  0.09856207    -0.01900
C3811       C  0.42235846  0.17185332  0.05256488    -0.03000
C3812       C  0.42682517  0.20006843  0.05691503     0.06600
C3813       C  0.40557335  0.21577003  0.06919678    -0.03200
C3814       C  0.37967599  0.20457477  0.07391730    -0.03200
C3815       C  0.37584758  0.17613506  0.07182212     0.06800
C3816       C  0.39721787  0.15983366  0.06079271    -0.03400
Br3817     Br  0.39043953  0.12183104  0.05357385    -0.01900
Br3818     Br  0.44968937  0.14989672  0.03420578    -0.02000
Br3819     Br  0.34977058  0.22948022  0.08266338    -0.01900
Br3820     Br  0.41160858  0.25281087  0.08152924    -0.01900
C3821       C  0.92334613  0.32647557  0.54922941    -0.03000
C3822       C  0.93853659  0.30910502  0.56653106     0.06600
C3823       C  0.93333154  0.31062906  0.59479364    -0.03200
C3824       C  0.91076952  0.32595189  0.60476073    -0.03200
C3825       C  0.89182545  0.33847012  0.58635273     0.06800
C3826       C  0.89900543  0.33924725  0.55851974    -0.03400
Br3827     Br  0.87533710  0.35715267  0.53279881    -0.01900
Br3828     Br  0.93860500  0.33693616  0.51477020    -0.02000
Br3829     Br  0.90791726  0.32949175  0.64383974    -0.01900
Br3830     Br  0.95695978  0.29197782  0.62038910    -0.01900
C3831       C  0.95297549  0.19810080  0.59706232    -0.03000
C3832       C  0.94239342  0.19581084  0.56997836     0.06600
C3833       C  0.92738955  0.17209481  0.56311682    -0.03200
C3834       C  0.92055671  0.15312644  0.58357885    -0.03200
C3835       C  0.92615413  0.15868685  0.61148442     0.06800
C3836       C  0.94440326  0.18007659  0.61774078    -0.03400
Br3837     Br  0.95759199  0.18540001  0.65466947    -0.01900
Br3838     Br  0.97887621  0.22598578  0.60707623    -0.02000
Br3839     Br  0.90611687  0.11807275  0.57317563    -0.01900
Br3840     Br  0.91720259  0.16444617  0.52557987    -0.01900
C3841       C  0.86620273  0.31331482  0.46189700    -0.03000
C3842       C  0.87165796  0.32915930  0.43844522     0.06600
C3843       C  0.89944921  0.33342321  0.43112036    -0.03200
C3844       C  0.92009346  0.31640836  0.44157865    -0.03200
C3845       C  0.91446447  0.29903076  0.46376411     0.06800
C3846       C  0.88771723  0.29908263  0.47504473    -0.03400
Br3847     Br  0.88042296  0.28086346  0.50916205    -0.01900
Br3848     Br  0.82992794  0.31274494  0.47786242    -0.02000
Br3849     Br  0.95500366  0.31523007  0.42250405    -0.01900
Br3850     Br  0.91078005  0.36258019  0.40734804    -0.01900
C3851       C  0.90810686  0.20175720  0.43702457    -0.03000
C3852       C  0.93529268  0.19350189  0.44258690     0.06600
C3853       C  0.94640493  0.17183812  0.42698416    -0.03200
C3854       C  0.93243241  0.16182675  0.40347275    -0.03200
C3855       C  0.90659044  0.17273604  0.39597215     0.06800
C3856       C  0.89414226  0.19221058  0.41365759    -0.03400
Br3857     Br  0.85839513  0.20779016  0.40557689    -0.01900
Br3858     Br  0.88846370  0.22394913  0.46298814    -0.02000
Br3859     Br  0.94818451  0.13243249  0.38248960    -0.01900
Br3860     Br  0.97864749  0.15358859  0.44010198    -0.01900
C3861       C  0.06448046  0.32987256  0.45074238    -0.03000
C3862       C  0.05818561  0.30317016  0.44168829     0.06600
C3863       C  0.06690209  0.29478964  0.41546560    -0.03200
C3864       C  0.08503726  0.31094246  0.40048890    -0.03200
C3865       C  0.09591446  0.33501115  0.41231930     0.06800
C3866       C  0.08334409  0.34583942  0.43598381    -0.03400
Br3867     Br  0.08806888  0.38378124  0.44522750    -0.01900
Br3868     Br  0.04657703  0.34504136  0.48252378    -0.02000
Br3869     Br  0.09391075  0.29990280  0.36329888    -0.01900
Br3870     Br  0.05277844  0.26214092  0.39871693    -0.01900
C3871       C  0.04502747  0.16979856  0.42632936    -0.03000
C3872       C  0.02903129  0.19370333  0.42189249     0.06600
C3873       C  0.02079616  0.19913015  0.39453206    -0.03200
C3874       C  0.03469672  0.18655954  0.37242864    -0.03200
C3875       C  0.05338945  0.16501901  0.37717467     0.06800
C3876       C  0.05447083  0.15418603  0.40379046    -0.03400
Br3877     Br  0.06528394  0.11683693  0.40922458    -0.01900
Br3878     Br  0.05479618  0.15747200  0.46250545    -0.02000
Br3879     Br  0.02692094  0.19832589  0.33571257    -0.01900
Br3880     Br  0.98919559  0.22187111  0.38662222    -0.01900
C3881       C  0.05668316  0.32589420  0.56488452    -0.03000
C3882       C  0.06383541  0.30917107  0.54203461     0.06600
C3883       C  0.09201330  0.30773461  0.53482953    -0.03200
C3884       C  0.11256982  0.31924314  0.55189578    -0.03200
C3885       C  0.10560081  0.33426107  0.57596099     0.06800
C3886       C  0.07733212  0.33821344  0.58153947    -0.03400
Br3887     Br  0.06665656  0.36093753  0.61205431    -0.01900
Br3888     Br  0.01876708  0.33162375  0.57465877    -0.02000
Br3889     Br  0.15038385  0.31156180  0.54266738    -0.01900
Br3890     Br  0.10302090  0.29053211  0.50072936    -0.01900
C3891       C  0.05282210  0.16462895  0.60165669    -0.03000
C3892       C  0.06482449  0.17962181  0.62361166     0.06600
C3893       C  0.06548112  0.20840913  0.62161397    -0.03200
C3894       C  0.05610470  0.22159707  0.59777381    -0.03200
C3895       C  0.04344822  0.20670785  0.57612698     0.06800
C3896       C  0.04129140  0.17811069  0.57872444    -0.03400
Br3897     Br  0.02115115  0.15718926  0.55175060    -0.01900
Br3898     Br  0.05142035  0.12539322  0.60260577    -0.02000
Br3899     Br  0.06296526  0.26031317  0.59476693    -0.01900
Br3900     Br  0.08041332  0.23078586  0.65078701    -0.01900
C3901       C  0.32811038  0.92170994  0.46176181    -0.03000
C3902       C  0.30726316  0.93661308  0.44887669     0.06600
C3903       C  0.30605898  0.93652837  0.42028863    -0.03200
C3904       C  0.31773334  0.91466563  0.40603501    -0.03200
C3905       C  0.33205578  0.89443771  0.42073057     0.06800
C3906       C  0.34018841  0.89973716  0.44779719    -0.03400
Br3907     Br  0.37006306  0.87961559  0.46409428    -0.01900
Br3908     Br  0.34634046  0.93714634  0.49274175    -0.02000
Br3909     Br  0.31509186  0.91378381  0.36673331    -0.01900
Br3910     Br  0.29088935  0.96733734  0.40089138    -0.01900
C3911       C  0.17117070  0.95898179  0.41707956    -0.03000
C3912       C  0.19958231  0.95411969  0.42086571     0.06600
C3913       C  0.21300499  0.93646990  0.40249485    -0.03200
C3914       C  0.20064548  0.92872143  0.37789571    -0.03200
C3915       C  0.17188866  0.93173855  0.37456780     0.06800
C3916       C  0.15707664  0.94653822  0.39481201    -0.03400
Br3917     Br  0.11777909  0.95062069  0.39175291    -0.01900
Br3918     Br  0.15127823  0.98158728  0.44264672    -0.02000
Br3919     Br  0.22470063  0.91398705  0.34992089    -0.01900
Br3920     Br  0.24424724  0.91574468  0.41441586    -0.01900
C3921       C  0.34316409  0.90810660  0.56500976    -0.03000
C3922       C  0.33184013  0.88128491  0.56479844     0.06600
C3923       C  0.30557957  0.87817447  0.55246058    -0.03200
C3924       C  0.29428587  0.89902346  0.53657931    -0.03200
C3925       C  0.30292605  0.92640027  0.54025747     0.06800
C3926       C  0.32755390  0.93070484  0.55521988    -0.03400
Br3927     Br  0.34082902  0.96716556  0.56185734    -0.01900
Br3928     Br  0.37939512  0.91517836  0.57955485    -0.02000
Br3929     Br  0.26815408  0.88803536  0.50866408    -0.01900
Br3930     Br  0.27990041  0.84996013  0.56265275    -0.01900
C3931       C  0.19534689  0.95969427  0.59684394    -0.03000
C3932       C  0.19736409  0.95092552  0.56941855     0.06600
C3933       C  0.18370218  0.92669924  0.56169138    -0.03200
C3934       C  0.16780815  0.91222870  0.58092352    -0.03200
C3935       C  0.16615149  0.92086846  0.60883421     0.06800
C3936       C  0.17954804  0.94544491  0.61615975    -0.03400
Br3937     Br  0.17873347  0.95963079  0.65308856    -0.01900
Br3938     Br  0.21614301  0.99025051  0.60904274    -0.02000
Br3939     Br  0.14804922  0.88088490  0.56765937    -0.01900
Br3940     Br  0.18957408  0.91092788  0.52561386    -0.01900
C3941       C  0.31269296  0.08292180  0.55063671    -0.03000
C3942       C  0.30640735  0.05826105  0.56455057     0.06600
C3943       C  0.31868585  0.05438594  0.59068693    -0.03200
C3944       C  0.33266652  0.07617107  0.60368117    -0.03200
C3945       C  0.33761506  0.10073030  0.58989197     0.06800
C3946       C  0.33122134  0.10169951  0.56189551    -0.03400
Br3947     Br  0.34833989  0.12763565  0.53785622    -0.01900
Br3948     Br  0.29337757  0.09585330  0.51884539    -0.02000
Br3949     Br  0.34770705  0.07116843  0.63933381    -0.01900
Br3950     Br  0.31625261  0.02023888  0.61007918    -0.01900
C3951       C  0.19121742  0.05868087  0.61888636    -0.03000
C3952       C  0.16654521  0.07340797  0.61555587     0.06600
C3953       C  0.15887569  0.08167608  0.58872619    -0.03200
C3954       C  0.17628188  0.07584626  0.56613027    -0.03200
C3955       C  0.20139430  0.06183401  0.56998002     0.06800
C3956       C  0.20951078  0.05584333  0.59697103    -0.03400
Br3957     Br  0.24764828  0.05145948  0.60579040    -0.01900
Br3958     Br  0.20092721  0.04289157  0.65392925    -0.02000
Br3959     Br  0.16792859  0.09154266  0.53116921    -0.01900
Br3960     Br  0.12630139  0.10350667  0.58244997    -0.01900
C3961       C  0.29389216  0.10798907  0.41148416    -0.03000
C3962       C  0.32276239  0.11091436  0.41154739     0.06600
C3963       C  0.33776718  0.09488563  0.43041893    -0.03200
C3964       C  0.32414929  0.07717669  0.44890559    -0.03200
C3965       C  0.29497665  0.07640922  0.45026329     0.06800
C3966       C  0.28016805  0.09307170  0.43190895    -0.03400
Br3967     Br  0.24079786  0.09681641  0.43460087    -0.01900
Br3968     Br  0.27238947  0.12172101  0.38210316    -0.02000
Br3969     Br  0.34587775  0.05540960  0.47362643    -0.01900
Br3970     Br  0.37733951  0.09561985  0.42941314    -0.01900
C3971       C  0.19638033  0.04867045  0.40955857    -0.03000
C3972       C  0.18924154  0.04605583  0.43738649     0.06600
C3973       C  0.16549369  0.05993731  0.44672705    -0.03200
C3974       C  0.15251204  0.07985091  0.43017335    -0.03200
C3975       C  0.16246126  0.08519958  0.40353968     0.06800
C3976       C  0.18564118  0.07010856  0.39418696    -0.03400
Br3977     Br  0.20751379  0.08153352  0.36326325    -0.01900
Br3978     Br  0.21974320  0.02224151  0.39099912    -0.02000
Br3979     Br  0.12287777  0.10084186  0.44556874    -0.01900
Br3980     Br  0.14798571  0.04863616  0.47996097    -0.01900
C3981       C  0.55039339  0.88840089  0.31534438    -0.03000
C3982       C  0.57808823  0.89377099  0.32221056     0.06600
C3983       C  0.59080307  0.91700228  0.31083835    -0.03200
C3984       C  0.57536115  0.93592592  0.29579871    -0.03200
C3985       C  0.54788588  0.93035513  0.28871157     0.06800
C3986       C  0.53602733  0.90570829  0.29722469    -0.03400
Br3987     Br  0.50106431  0.89460214  0.28272272    -0.01900
Br3988     Br  0.53193998  0.85738573  0.33031367    -0.02000
Br3989     Br  0.59310762  0.96851903  0.28290744    -0.01900
Br3990     Br  0.63025916  0.92133528  0.31136246    -0.01900
C3991       C  0.60574477  0.97187566  0.19118241    -0.03000
C3992       C  0.57836023  0.96374410  0.18568415     0.06600
C3993       C  0.57376336  0.94553393  0.16338275    -0.03200
C3994       C  0.59619080  0.93356731  0.14923122    -0.03200
C3995       C  0.62346207  0.93789612  0.15846061     0.06800
C3996       C  0.62802822  0.95877461  0.17803648    -0.03400
Br3997     Br  0.66499496  0.97041735  0.18645180    -0.01900
Br3998     Br  0.61350451  0.00156889  0.21617851    -0.02000
Br3999     Br  0.58869106  0.91135780  0.11724494    -0.01900
Br4000     Br  0.53706835  0.93470225  0.15273909    -0.01900
C4001       C  0.41547529  0.90164635  0.28647068    -0.03000
C4002       C  0.42388942  0.89424293  0.31301464     0.06600
C4003       C  0.44265644  0.91136450  0.32715373    -0.03200
C4004       C  0.45444363  0.93409849  0.31391353    -0.03200
C4005       C  0.44655178  0.94055623  0.28695606     0.06800
C4006       C  0.42519778  0.92561065  0.27461689    -0.03400
Br4007     Br  0.40582190  0.94013466  0.24365143    -0.01900
Br4008     Br  0.39007192  0.87986499  0.26565312    -0.02000
Br4009     Br  0.48191844  0.95571783  0.33224435    -0.01900
Br4010     Br  0.45357482  0.90286965  0.36401477    -0.01900
C4011       C  0.40846415  0.96816033  0.16734720    -0.03000
C4012       C  0.43097062  0.95821503  0.18258818     0.06600
C4013       C  0.43598403  0.92983560  0.18241313    -0.03200
C4014       C  0.41614316  0.91156763  0.17202066    -0.03200
C4015       C  0.39208947  0.92142659  0.15856093     0.06800
C4016       C  0.39027140  0.94983720  0.15388636    -0.03400
Br4017     Br  0.36645542  0.96320869  0.12542212    -0.01900
Br4018     Br  0.40366758  0.00681245  0.16345960    -0.02000
Br4019     Br  0.42303662  0.87312397  0.17752996    -0.01900
Br4020     Br  0.47007914  0.91542366  0.19683197    -0.01900
C4021       C  0.40574815  0.06862546  0.30051020    -0.03000
C4022       C  0.43432542  0.06458204  0.29659250     0.06600
C4023       C  0.45196689  0.08146880  0.31207456    -0.03200
C4024       C  0.44271880  0.10663469  0.32295515    -0.03200
C4025       C  0.41440023  0.11263159  0.32409390     0.06800
C4026       C  0.39597570  0.09185070  0.31532803    -0.03400
Br4027     Br  0.35737619  0.09441991  0.32337696    -0.01900
Br4028     Br  0.37972957  0.04222402  0.28691234    -0.02000
Br4029     Br  0.46922048  0.13201332  0.33724659    -0.01900
Br4030     Br  0.48544602  0.06625096  0.32587647    -0.01900
C4031       C  0.40942769  0.08007605  0.15261012    -0.03000
C4032       C  0.38758254  0.08879895  0.16957381     0.06600
C4033       C  0.39240159  0.09156186  0.19795531    -0.03200
C4034       C  0.41901570  0.08928815  0.20827936    -0.03200
C4035       C  0.43961863  0.07712513  0.19252671     0.06800
C4036       C  0.43493559  0.07248010  0.16442857    -0.03400
Br4037     Br  0.46368935  0.05656842  0.14251350    -0.01900
Br4038     Br  0.40388063  0.07719241  0.11379937    -0.02000
Br4039     Br  0.42757621  0.10372016  0.24384821    -0.01900
Br4040     Br  0.36316039  0.09362083  0.22422600    -0.01900
C4041       C  0.55282233  0.12397281  0.31005274    -0.03000
C4042       C  0.57549199  0.11586969  0.32638591     0.06600
C4043       C  0.57897331  0.08778234  0.33145173    -0.03200
C4044       C  0.56373894  0.06804916  0.31675270    -0.03200
C4045       C  0.54404309  0.07619679  0.29695632     0.06800
C4046       C  0.53774922  0.10442791  0.29490076    -0.03400
Br4047     Br  0.50813587  0.11708467  0.27160097    -0.01900
Br4048     Br  0.54096811  0.16158297  0.30868976    -0.02000
Br4049     Br  0.57141459  0.03002468  0.32373498    -0.01900
Br4050     Br  0.60217037  0.07619292  0.36104641    -0.01900
C4051       C  0.58991067  0.07116839  0.20619300    -0.03000
C4052       C  0.56975829  0.05640083  0.19155254     0.06600
C4053       C  0.57327169  0.05286849  0.16299165    -0.03200
C4054       C  0.59623243  0.06476272  0.14965080    -0.03200
C4055       C  0.61646405  0.07878836  0.16505169     0.06800
C4056       C  0.61425633  0.07887049  0.19365819    -0.03400
Br4057     Br  0.64588324  0.08366032  0.21687164    -0.01900
Br4058     Br  0.58467229  0.08305380  0.24344569    -0.02000
Br4059     Br  0.60217831  0.05809473  0.11138398    -0.01900
Br4060     Br  0.54773427  0.03077772  0.14251843    -0.01900
C4061       C  0.91268695  0.43294381  0.34239538    -0.03000
C4062       C  0.89016653  0.42137991  0.32800191     0.06600
C4063       C  0.88983131  0.42340925  0.29921815    -0.03200
C4064       C  0.91036294  0.43791059  0.28525435    -0.03200
C4065       C  0.93371241  0.44906299  0.29944214     0.06800
C4066       C  0.93445312  0.44616335  0.32829251    -0.03400
Br4067     Br  0.96317198  0.46346698  0.34923408    -0.01900
Br4068     Br  0.91264577  0.43306418  0.38179270    -0.02000
Br4069     Br  0.90319071  0.44359848  0.24654610    -0.01900
Br4070     Br  0.86141076  0.40547428  0.27776651    -0.01900
C4071       C  0.94973343  0.40579091  0.21470375    -0.03000
C4072       C  0.95690267  0.42971968  0.20030871     0.06600
C4073       C  0.94715826  0.43243114  0.17295806    -0.03200
C4074       C  0.92921593  0.41257796  0.16143445    -0.03200
C4075       C  0.91968031  0.39090951  0.17751182     0.06800
C4076       C  0.92906222  0.38891248  0.20448157    -0.03400
Br4077     Br  0.90924158  0.36775910  0.23000322    -0.01900
Br4078     Br  0.96642351  0.39490412  0.24915012    -0.02000
Br4079     Br  0.91641795  0.41569011  0.12429159    -0.01900
Br4080     Br  0.95940114  0.46201767  0.15039615    -0.01900
C4081       C  0.92874157  0.58071774  0.31069055    -0.03000
C4082       C  0.92597513  0.55237280  0.30605517     0.06600
C4083       C  0.90312805  0.53923098  0.31771833    -0.03200
C4084       C  0.88406605  0.55403242  0.33380164    -0.03200
C4085       C  0.88375378  0.58260779  0.33339747     0.06800
C4086       C  0.90653549  0.59597495  0.32162155    -0.03400
Br4087     Br  0.90695516  0.63485771  0.31733892    -0.01900
Br4088     Br  0.96179689  0.59934052  0.29968956    -0.02000
Br4089     Br  0.86070836  0.53541041  0.35896957    -0.01900
Br4090     Br  0.89631393  0.50159683  0.31098684    -0.01900
C4091       C  0.94322197  0.60536475  0.15942884    -0.03000
C4092       C  0.92858388  0.62528376  0.17456006     0.06600
C4093       C  0.92446525  0.62171332  0.20260589    -0.03200
C4094       C  0.93096732  0.59702917  0.21444274    -0.03200
C4095       C  0.94841268  0.57854367  0.20088251     0.06800
C4096       C  0.95470087  0.58267605  0.17303107    -0.03400
Br4097     Br  0.97873570  0.55785650  0.15367344    -0.01900
Br4098     Br  0.94718015  0.60886271  0.12057175    -0.02000
Br4099     Br  0.91107622  0.58693134  0.24659418    -0.01900
Br4100     Br  0.91160629  0.65077057  0.22597737    -0.01900
C4101       C  0.11285430  0.55757701  0.32721486    -0.03000
C4102       C  0.11744029  0.58490038  0.31999664     0.06600
C4103       C  0.09737494  0.59896746  0.30476046    -0.03200
C4104       C  0.07518639  0.58471473  0.29331787    -0.03200
C4105       C  0.07242826  0.55654395  0.29781019     0.06800
C4106       C  0.08959812  0.54387340  0.31706974    -0.03400
Br4107     Br  0.07906369  0.50968113  0.33234810    -0.01900
Br4108     Br  0.13749121  0.53934868  0.35195842    -0.02000
Br4109     Br  0.04766029  0.60456508  0.27335109    -0.01900
Br4110     Br  0.09974660  0.63772774  0.29940366    -0.01900
C4111       C  0.08692878  0.58294696  0.16667884    -0.03000
C4112       C  0.08037687  0.61094234  0.16544341     0.06600
C4113       C  0.05573326  0.61988647  0.17840656    -0.03200
C4114       C  0.03907418  0.60141908  0.19307282    -0.03200
C4115       C  0.04514231  0.57308688  0.19314614     0.06800
C4116       C  0.06797684  0.56411656  0.17745715    -0.03400
Br4117     Br  0.07230312  0.52645799  0.16731069    -0.01900
Br4118     Br  0.12266154  0.56995804  0.15597727    -0.02000
Br4119     Br  0.00694341  0.61545798  0.21166390    -0.01900
Br4120     Br  0.04528982  0.65801277  0.17847702    -0.01900
C4121       C  0.11915823  0.45014858  0.31498908    -0.03000
C4122       C  0.11457722  0.43260068  0.33710782     0.06600
C4123       C  0.08694513  0.42633664  0.34367179    -0.03200
C4124       C  0.06512807  0.43394653  0.32588559    -0.03200
C4125       C  0.07051004  0.44807947  0.30139953     0.06800
C4126       C  0.09790572  0.45654042  0.29658044    -0.03400
Br4127     Br  0.10782269  0.47682915  0.26475785    -0.01900
Br4128     Br  0.15452553  0.46726233  0.31082471    -0.02000
Br4129     Br  0.02784093  0.42534750  0.33557738    -0.01900
Br4130     Br  0.07819796  0.40790958  0.37698785    -0.01900
C4131       C  0.10956461  0.43233691  0.16579359    -0.03000
C4132       C  0.09542688  0.40831170  0.15785720     0.06600
C4133       C  0.06726143  0.40754395  0.16284105    -0.03200
C4134       C  0.05533170  0.42497539  0.18259459    -0.03200
C4135       C  0.06975331  0.44799089  0.19340035     0.06800
C4136       C  0.09705432  0.45190845  0.18347354    -0.03400
Br4137     Br  0.11959675  0.48228365  0.19499590    -0.01900
Br4138     Br  0.14499811  0.44049484  0.15000683    -0.02000
Br4139     Br  0.02124685  0.41242418  0.19682343    -0.01900
Br4140     Br  0.04424602  0.38625616  0.13875239    -0.01900
loop_ 
_geom_bond_atom_site_label_1 
_geom_bond_atom_site_label_2 
_geom_bond_distance 
_geom_bond_site_symmetry_2 
_ccdc_geom_bond_type 
O1            C9   1.278       .  A
O1          Co21   1.916       .  S
O2           C10   1.267       .  A
O2          Co22   1.980       .  S
O3           C11   1.270       .  A
O3          Co23   2.023       .  S
O4           C12   1.263       .  A
O4          Co24   1.975       .  S
O5           C11   1.259       .  A
O5          Co22   1.976   1_455  S
O6           C12   1.285       .  A
O6          Co21   2.033   1_655  S
O7           C10   1.283       .  A
O7          Co24   2.057       .  S
O8            C9   1.297       .  A
O8          Co23   2.113       .  S
C9         C4125   1.507       .  S
C10        C4082   1.503       .  S
C11        C4105   1.478       .  S
C12        C4065   1.527       .  S
O13          C26   1.269       .  A
O13         Co21   1.988   1_655  S
O14          C27   1.280       .  A
O14         Co22   2.047   1_455  S
O15          C28   1.266       .  A
O15         Co23   1.905       .  S
O16          C29   1.258       .  A
O16         Co24   1.966       .  S
O17          C29   1.269       .  A
O17         Co22   1.997       .  S
O18          C28   1.299       .  A
O18         Co21   2.142       .  S
O19          C26   1.268       .  A
O19         Co24   1.992       .  S
O20          C27   1.272       .  A
O20         Co23   1.991       .  S
Co21         O25   2.015   1_455  S
Co22         O25   2.034       .  S
Co23         O25   1.999   1_455  S
Co24         O25   2.037       .  S
C26        C4072   1.507       .  S
C27        C4115   1.520       .  S
C28        C4135   1.531       .  S
C29        C4095   1.470       .  S
O30          C38   1.264       .  A
O30         Co50   1.992       .  S
O31          C39   1.269       .  A
O31         Co51   1.987   1_565  S
O32          C40   1.301       .  A
O32         Co52   2.132       .  S
O33          C41   1.275       .  A
O33         Co53   2.036       .  S
O34          C40   1.272       .  A
O34         Co51   1.915       .  S
O35          C41   1.263       .  A
O35         Co50   1.966   1_565  S
O36          C39   1.276       .  A
O36         Co53   2.031       .  S
O37          C38   1.265       .  A
O37         Co52   2.004       .  S
C38        C4045   1.508       .  S
C39        C4005   1.491       .  S
C40        C4022   1.523       .  S
C41        C3985   1.484       .  S
O42          C55   1.273       .  A
O42         Co50   2.031   1_565  S
O43          C56   1.293       .  A
O43         Co51   2.098       .  S
O44          C57   1.276       .  A
O44         Co52   1.999       .  S
O45          C58   1.261       .  A
O45         Co53   1.983       .  S
O46          C58   1.276       .  A
O46         Co51   2.040   1_565  S
O47          C57   1.277       .  A
O47         Co50   2.007       .  S
O48          C55   1.264       .  A
O48         Co53   1.983       .  S
O49          C56   1.269       .  A
O49         Co52   1.901       .  S
Co50         O54   2.020       .  S
Co51         O54   2.009       .  S
Co52         O54   2.005       .  S
Co53         O54   2.033   1_565  S
C55        C3992   1.506       .  S
C56        C4035   1.473       .  S
C57        C4052   1.497       .  S
C58        C4012   1.503       .  S
O59          C67   1.277       .  A
O59         Co79   1.996       .  S
O60          C68   1.269       .  A
O60         Co80   1.983       .  S
O61          C69   1.274       .  A
O61         Co81   2.033   1_565  S
O62          C70   1.298       .  A
O62         Co82   2.118       .  S
O63          C69   1.260       .  A
O63         Co80   1.978       .  S
O64          C70   1.271       .  A
O64         Co79   1.912       .  S
O65          C68   1.281       .  A
O65         Co82   2.037   1_565  S
O66          C67   1.276       .  A
O66         Co81   2.002       .  S
C67        C3972   1.503       .  S
C68        C3932   1.506       .  S
C69        C3912   1.494       .  S
C70        C3955   1.501       .  S
O71          C84   1.298       .  A
O71         Co79   2.113       .  S
O72          C85   1.284       .  A
O72         Co80   2.045       .  S
O73          C86   1.255       .  A
O73         Co81   1.975       .  S
O74          C87   1.276       .  A
O74         Co82   2.020   1_565  S
O75          C87   1.263       .  A
O75         Co80   1.995       .  S
O76          C86   1.273       .  A
O76         Co79   2.048       .  S
O77          C84   1.276       .  A
O77         Co82   1.886       .  S
O78          C85   1.250       .  A
O78         Co81   1.931   1_565  S
Co79         O83   1.992   1_545  S
Co80         O83   2.030       .  S
Co81         O83   2.015   1_545  S
Co82         O83   1.986   1_545  S
C84        C3942   1.511       .  S
C85        C3902   1.454       .  S
C86        C3965   1.519       .  S
C87        C3925   1.515       .  S
O88          C96   1.278       .  A
O88        Co108   2.006   1_455  S
O89          C97   1.259       .  A
O89        Co109   1.968       .  S
O90          C98   1.277       .  A
O90        Co110   2.040       .  S
O91          C99   1.295       .  A
O91        Co111   2.122       .  S
O92          C98   1.259       .  A
O92        Co109   1.965   1_455  S
O93          C99   1.267       .  A
O93        Co108   1.898       .  S
O94          C97   1.265       .  A
O94        Co111   2.007       .  S
O95          C96   1.279       .  A
O95        Co110   2.033       .  S
C96        C3882   1.524       .  S
C97        C3845   1.488       .  S
C98        C3862   1.485       .  S
C99        C3822   1.500       .  S
O100        C113   1.295       .  A
O100       Co108   2.114       .  S
O101        C114   1.274       .  A
O101       Co109   2.015   1_455  S
O102        C115   1.276       .  A
O102       Co110   2.017       .  S
O103        C116   1.276       .  A
O103       Co111   2.007       .  S
O104        C116   1.277       .  A
O104       Co109   2.029       .  S
O105        C115   1.265       .  A
O105       Co108   1.986   1_455  S
O106        C113   1.275       .  A
O106       Co111   1.908       .  S
O107        C114   1.271       .  A
O107       Co110   1.993       .  S
Co108       O112   1.980       .  S
Co109       O112   2.014       .  S
Co110       O112   2.044   1_455  S
Co111       O112   2.015       .  S
C113       C3832   1.506       .  S
C114       C3872   1.511       .  S
C115       C3895   1.508       .  S
C116       C3852   1.500       .  S
O117        C125   1.276       .  A
O117       Co137   2.000       .  S
O118        C126   1.275       .  A
O118       Co138   1.902       .  S
O119        C127   1.282       .  A
O119       Co139   2.046       .  S
O120        C128   1.271       .  A
O120       Co140   2.004       .  S
O121        C127   1.272       .  A
O121       Co138   1.999   1_554  S
O122        C128   1.270       .  A
O122       Co137   2.001   1_556  S
O123        C126   1.289       .  A
O123       Co140   2.099       .  S
O124        C125   1.272       .  A
O124       Co139   2.013       .  S
C125       C3805   1.505       .  S
C126       C3762   1.494       .  S
C127       C3785   1.504       .  S
C128       C3742   1.509       .  S
O129        C142   1.280       .  A
O129       Co137   2.032   1_556  S
O130        C143   1.270       .  A
O130       Co138   2.013   1_554  S
O131        C144   1.275       .  A
O131       Co139   2.008       .  S
O132        C145   1.268       .  A
O132       Co140   1.912       .  S
O133        C145   1.303       .  A
O133       Co138   2.145       .  S
O134        C144   1.269       .  A
O134       Co137   1.983       .  S
O135        C142   1.276       .  A
O135       Co140   1.990       .  S
O136        C143   1.267       .  A
O136       Co139   1.994       .  S
Co137       O141   2.021       .  S
Co138       O141   2.003   1_556  S
Co139       O141   2.038       .  S
Co140       O141   1.980   1_556  S
C142       C3752   1.510       .  S
C143       C3792   1.513       .  S
C144       C3812   1.499       .  S
C145       C3772   1.518       .  S
O146        C154   1.273       .  A
O146       Co166   1.989   1_554  S
O147        C155   1.261       .  A
O147       Co167   1.970   1_556  S
O148        C156   1.274       .  A
O148       Co168   2.025       .  S
O149        C157   1.296       .  A
O149       Co169   2.116       .  S
O150        C156   1.261       .  A
O150       Co167   1.966       .  S
O151        C157   1.271       .  A
O151       Co166   1.910       .  S
O152        C155   1.271       .  A
O152       Co169   2.027       .  S
O153        C154   1.279       .  A
O153       Co168   2.023       .  S
C154       C3722   1.482       .  S
C155       C3682   1.484       .  S
C156       C3705   1.497       .  S
C157       C3665   1.490       .  S
O158        C171   1.295       .  A
O158       Co166   2.109       .  S
O159        C172   1.273       .  A
O159       Co167   2.002       .  S
O160        C173   1.263       .  A
O160       Co168   1.988       .  S
O161        C174   1.270       .  A
O161       Co169   1.983       .  S
O162        C174   1.275       .  A
O162       Co167   2.024   1_556  S
O163        C173   1.268       .  A
O163       Co166   2.015   1_554  S
O164        C171   1.270       .  A
O164       Co169   1.895       .  S
O165        C172   1.265       .  A
O165       Co168   1.979       .  S
Co166       O170   1.992   1_556  S
Co167       O170   2.014       .  S
Co168       O170   2.033       .  S
Co169       O170   1.994   1_556  S
C171       C3672   1.491       .  S
C172       C3712   1.482       .  S
C173       C3735   1.507       .  S
C174       C3692   1.504       .  S
O175        C183   1.243       .  A
O175       Co195   1.973       .  S
O176        C184   1.249       .  A
O176       Co196   1.943       .  S
O177        C185   1.265       .  A
O177       Co197   2.038       .  S
O178        C186   1.287       .  A
O178       Co198   2.066   1_545  S
O179        C185   1.241       .  A
O179       Co196   1.953       .  S
O180        C186   1.262       .  A
O180       Co195   1.950       .  S
O181        C184   1.271       .  A
O181       Co198   2.052       .  S
O182        C183   1.261       .  A
O182       Co197   2.043   1_545  S
C183       C3642   1.491       .  S
C184       C3582   1.502       .  S
C185       C3605   1.488       .  S
C186       C3625   1.513       .  S
O187        C200   1.249       .  A
O187       Co195   1.966       .  S
O188        C201   1.283       .  A
O188       Co196   2.076       .  S
O189        C202   1.277       .  A
O189       Co197   1.912   1_545  S
O190        C203   1.258       .  A
O190       Co198   1.977       .  S
O191        C203   1.271       .  A
O191       Co196   2.039       .  S
O192        C202   1.286       .  A
O192       Co195   2.042       .  S
O193        C200   1.264       .  A
O193       Co198   2.010   1_545  S
O194        C201   1.264       .  A
O194       Co197   1.968       .  S
Co195       O199   2.061   1_545  S
Co196       O199   2.042       .  S
Co197       O199   1.998       .  S
Co198       O199   2.091       .  S
C200       C3635   1.501       .  S
C201       C3612   1.509       .  S
C202       C3655   1.473       .  S
C203       C3592   1.520       .  S
O204        C212   1.271       .  A
O204       Co224   2.017       .  S
O205        C213   1.297       .  A
O205       Co225   2.138       .  S
O206        C214   1.277       .  A
O206       Co226   2.014   1_556  S
O207        C215   1.270       .  A
O207       Co227   1.985   1_554  S
O208        C214   1.265       .  A
O208       Co225   1.977       .  S
O209        C215   1.284       .  A
O209       Co224   2.056       .  S
O210        C213   1.270       .  A
O210       Co227   1.927       .  S
O211        C212   1.269       .  A
O211       Co226   1.999       .  S
C212       C3562   1.512       .  S
C213       C3502   1.540       .  S
C214       C3522   1.508       .  S
C215       C3542   1.506       .  S
O216        C229   1.262       .  A
O216       Co224   2.000       .  S
O217        C230   1.281       .  A
O217       Co225   2.018       .  S
O218        C231   1.282       .  A
O218       Co226   2.053       .  S
O219        C232   1.287       .  A
O219       Co227   2.083       .  S
O220        C232   1.277       .  A
O220       Co225   1.909       .  S
O221        C231   1.268       .  A
O221       Co224   1.990       .  S
O222        C229   1.276       .  A
O222       Co227   2.051   1_554  S
O223        C230   1.270       .  A
O223       Co226   1.994   1_556  S
Co224       O228   2.025       .  S
Co225       O228   2.009   1_556  S
Co226       O228   2.031       .  S
Co227       O228   2.002   1_556  S
C229       C3552   1.516       .  S
C230       C3535   1.524       .  S
C231       C3572   1.528       .  S
C232       C3515   1.485       .  S
O233        C241   1.272       .  A
O233       Co253   2.009       .  S
O234        C242   1.269       .  A
O234       Co254   2.007       .  S
O235        C243   1.268       .  A
O235       Co255   1.885       .  S
O236        C244   1.262       .  A
O236       Co256   1.959       .  S
O237        C243   1.298       .  A
O237       Co254   2.125       .  S
O238        C244   1.271       .  A
O238       Co253   2.003       .  S
O239        C242   1.265       .  A
O239       Co256   1.991   1_655  S
O240        C241   1.277       .  A
O240       Co255   2.000   1_455  S
C241       C3485   1.503       .  S
C242       C3422   1.497       .  S
C243       C3442   1.476       .  S
C244       C3462   1.478       .  S
O245        C258   1.272       .  A
O245       Co253   1.992       .  S
O246        C259   1.270       .  A
O246       Co254   1.873       .  S
O247        C260   1.266       .  A
O247       Co255   2.002   1_455  S
O248        C261   1.273       .  A
O248       Co256   2.005   1_655  S
O249        C261   1.276       .  A
O249       Co254   1.998       .  S
O250        C260   1.272       .  A
O250       Co253   1.998       .  S
O251        C258   1.274       .  A
O251       Co256   2.010       .  S
O252        C259   1.302       .  A
O252       Co255   2.132       .  S
Co253       O257   2.023       .  S
Co254       O257   1.978   1_655  S
Co255       O257   1.973   1_655  S
Co256       O257   2.018       .  S
C258       C3472   1.506       .  S
C259       C3452   1.481       .  S
C260       C3492   1.495       .  S
C261       C3435   1.504       .  S
O262        C270   1.303       .  A
O262       Co282   2.099       .  S
O263        C271   1.273       .  A
O263       Co283   2.028       .  S
O264        C272   1.256       .  A
O264       Co284   2.033   1_655  S
O265        C273   1.254       .  A
O265       Co285   1.945   1_455  S
O266        C272   1.253       .  A
O266       Co283   1.997       .  S
O267        C273   1.294       .  A
O267       Co282   2.101       .  S
O268        C271   1.258       .  A
O268       Co285   1.979       .  S
O269        C270   1.269       .  A
O269       Co284   1.879       .  S
C270       C3412   1.498       .  S
C271       C3372   1.494       .  S
C272       C3355   1.511       .  S
C273       C3392   1.515       .  S
O274        C287   1.252       .  A
O274       Co282   2.040       .  S
O275        C288   1.263       .  A
O275       Co283   1.976       .  S
O276        C289   1.305       .  A
O276       Co284   2.097       .  S
O277        C290   1.263       .  A
O277       Co285   1.991       .  S
O278        C290   1.260       .  A
O278       Co283   1.987       .  S
O279        C289   1.275       .  A
O279       Co282   1.933       .  S
O280        C287   1.243       .  A
O280       Co285   1.978   1_455  S
O281        C288   1.284       .  A
O281       Co284   2.056   1_655  S
Co282       O286   2.072   1_455  S
Co283       O286   2.101       .  S
Co284       O286   2.050   1_455  S
Co285       O286   2.074       .  S
C287       C3382   1.508       .  S
C288       C3342   1.513       .  S
C289       C3402   1.524       .  S
C290       C3362   1.498       .  S
O291        C299   1.269       .  A
O291       Co311   1.991   1_554  S
O292        C300   1.262       .  A
O292       Co312   1.992       .  S
O293        C301   1.273       .  A
O293       Co313   2.018       .  S
O294        C302   1.293       .  A
O294       Co314   2.105       .  S
O295        C301   1.269       .  A
O295       Co312   1.980   1_554  S
O296        C302   1.275       .  A
O296       Co311   1.896       .  S
O297        C300   1.273       .  A
O297       Co314   2.038       .  S
O298        C299   1.280       .  A
O298       Co313   2.053       .  S
C299       C3325   1.507       .  S
C300       C3282   1.523       .  S
C301       C3302   1.492       .  S
C302       C3262   1.490       .  S
O303        C316   1.292       .  A
O303       Co311   2.103       .  S
O304        C317   1.268       .  A
O304       Co312   2.008   1_554  S
O305        C318   1.258       .  A
O305       Co313   1.975       .  S
O306        C319   1.269       .  A
O306       Co314   1.986       .  S
O307        C319   1.285       .  A
O307       Co312   2.059       .  S
O308        C318   1.279       .  A
O308       Co311   2.054   1_554  S
O309        C316   1.272       .  A
O309       Co314   1.895       .  S
O310        C317   1.259       .  A
O310       Co313   1.962       .  S
Co311       O315   1.988   1_556  S
Co312       O315   2.028   1_556  S
Co313       O315   2.027       .  S
Co314       O315   1.995   1_556  S
C316       C3272   1.483       .  S
C317       C3312   1.484       .  S
C318       C3332   1.512       .  S
C319       C3292   1.502       .  S
O320        C328   1.256       .  A
O320       Co340   1.978       .  S
O321        C329   1.261       .  A
O321       Co341   1.955       .  S
O322        C330   1.260       .  A
O322       Co342   2.033       .  S
O323        C331   1.269       .  A
O323       Co343   2.041       .  S
O324        C330   1.235       .  A
O324       Co341   1.952       .  S
O325        C331   1.251       .  A
O325       Co340   1.947       .  S
O326        C329   1.288       .  A
O326       Co343   2.078       .  S
O327        C328   1.263       .  A
O327       Co342   2.015       .  S
C328       C3232   1.487       .  S
C329       C3242   1.505       .  S
C330       C3222   1.467       .  S
C331       C3252   1.495       .  S
O332        C345   1.279       .  A
O332       Co340   2.046       .  S
O333        C346   1.293       .  A
O333       Co341   2.068       .  S
O334        C347   1.268       .  A
O334       Co342   1.984       .  S
O335        C348   1.262       .  A
O335       Co343   2.025       .  S
O336        C348   1.241       .  A
O336       Co341   1.949       .  S
O337        C347   1.274       .  A
O337       Co340   2.037       .  S
O338        C345   1.257       .  A
O338       Co343   1.963       .  S
O339        C346   1.276       .  A
O339       Co342   1.911       .  S
Co340       O344   2.051       .  S
Co341       O344   2.065       .  S
Co342       O344   1.994       .  S
Co343       O344   2.106       .  S
C345       C3212   1.505       .  S
C346       C3365   1.489       .  S
C347       C3825   1.503       .  S
C348       C3202   1.485       .  S
O349        C357   1.295       .  A
O349       Co369   2.100       .  S
O350        C358   1.277       .  A
O350       Co370   2.036       .  S
O351        C359   1.280       .  A
O351       Co371   2.010       .  S
O352        C360   1.251       .  A
O352       Co372   1.970       .  S
O353        C359   1.276       .  A
O353       Co370   2.048       .  S
O354        C360   1.271       .  A
O354       Co369   2.040       .  S
O355        C358   1.259       .  A
O355       Co372   1.950       .  S
O356        C357   1.267       .  A
O356       Co371   1.889       .  S
C357       C3765   1.488       .  S
C358       C3162   1.477       .  S
C359       C3505   1.533       .  S
C360       C3152   1.493       .  S
O361        C374   1.263       .  A
O361       Co369   1.975       .  S
O362        C375   1.252       .  A
O362       Co370   1.960       .  S
O363        C376   1.287       .  A
O363       Co371   2.094       .  S
O364        C377   1.270       .  A
O364       Co372   2.049       .  S
O365        C377   1.252       .  A
O365       Co370   1.959       .  S
O366        C376   1.268       .  A
O366       Co369   1.933       .  S
O367        C374   1.281       .  A
O367       Co372   2.063       .  S
O368        C375   1.260       .  A
O368       Co371   1.996       .  S
Co369       O373   2.034       .  S
Co370       O373   2.030       .  S
Co371       O373   2.045       .  S
Co372       O373   2.074       .  S
C374       C3195   1.506       .  S
C375       C3175   1.456       .  S
C376       C3185   1.490       .  S
C377       C3245   1.499       .  S
O378        C386   1.245       .  A
O378       Co398   1.970       .  S
O379        C387   1.249       .  A
O379       Co399   1.960       .  S
O380        C388   1.265       .  A
O380       Co400   2.024       .  S
O381        C389   1.258       .  A
O381       Co401   1.998       .  S
O382        C388   1.247       .  A
O382       Co399   1.949       .  S
O383        C389   1.264       .  A
O383       Co398   2.014       .  S
O384        C387   1.255       .  A
O384       Co401   2.020       .  S
O385        C386   1.255       .  A
O385       Co400   2.044       .  S
C386       C3132   1.491       .  S
C387       C3255   1.487       .  S
C388       C3122   1.491       .  S
C389       C3192   1.517       .  S
O390        C403   1.262       .  A
O390       Co398   2.000       .  S
O391        C404   1.265       .  A
O391       Co399   2.011       .  S
O392        C405   1.266       .  A
O392       Co400   1.900       .  S
O393        C406   1.268       .  A
O393       Co401   1.975       .  S
O394        C406   1.274       .  A
O394       Co399   2.025       .  S
O395        C405   1.303       .  A
O395       Co398   2.124       .  S
O396        C403   1.261       .  A
O396       Co401   2.002       .  S
O397        C404   1.267       .  A
O397       Co400   1.990       .  S
Co398       O402   2.176       .  S
Co399       O402   2.075       .  S
Co400       O402   2.063       .  S
Co401       O402   2.143       .  S
C403       C3102   1.515       .  S
C404       C3145   1.525       .  S
C405       C3645   1.490       .  S
C406       C3112   1.496       .  S
O407        C415   1.273       .  A
O407       Co427   1.902       .  S
O408        C416   1.246       .  A
O408       Co428   1.947       .  S
O409        C417   1.248       .  A
O409       Co429   1.975       .  S
O410        C418   1.281       .  A
O410       Co430   2.056       .  S
O411        C417   1.260       .  A
O411       Co428   1.987       .  S
O412        C418   1.270       .  A
O412       Co427   1.986       .  S
O413        C416   1.272       .  A
O413       Co430   2.072       .  S
O414        C415   1.300       .  A
O414       Co429   2.090       .  S
C415       C3235   1.489       .  S
C416       C3082   1.513       .  S
C417       C3125   1.467       .  S
C418       C3092   1.514       .  S
O419        C432   1.276       .  A
O419       Co427   2.037       .  S
O420        C433   1.272       .  A
O420       Co428   2.025       .  S
O421        C434   1.238       .  A
O421       Co429   1.925       .  S
O422        C435   1.263       .  A
O422       Co430   1.960       .  S
O423        C435   1.272       .  A
O423       Co428   2.019       .  S
O424        C434   1.272       .  A
O424       Co427   2.064       .  S
O425        C432   1.261       .  A
O425       Co430   1.990       .  S
O426        C433   1.260       .  A
O426       Co429   1.960       .  S
Co427       O431   1.999       .  S
Co428       O431   2.081       .  S
Co429       O431   2.067       .  S
Co430       O431   2.092       .  S
C432       C3052   1.505       .  S
C433       C3072   1.495       .  S
C434       C3835   1.503       .  S
C435       C3062   1.478       .  S
O436        C444   1.258       .  A
O436       Co456   1.997       .  S
O437        C445   1.267       .  A
O437       Co457   2.002       .  S
O438        C446   1.291       .  A
O438       Co458   2.080       .  S
O439        C447   1.270       .  A
O439       Co459   2.037       .  S
O440        C446   1.269       .  A
O440       Co457   1.893       .  S
O441        C447   1.245       .  A
O441       Co456   1.930       .  S
O442        C445   1.277       .  A
O442       Co459   2.046       .  S
O443        C444   1.257       .  A
O443       Co458   2.010       .  S
C444       C3775   1.527       .  S
C445       C3032   1.532       .  S
C446       C3652   1.474       .  S
C447       C3022   1.485       .  S
O448        C461   1.279       .  A
O448       Co456   2.059       .  S
O449        C462   1.304       .  A
O449       Co457   2.129       .  S
O450        C463   1.268       .  A
O450       Co458   1.985       .  S
O451        C464   1.244       .  A
O451       Co459   1.954       .  S
O452        C464   1.269       .  A
O452       Co457   2.048       .  S
O453        C463   1.266       .  A
O453       Co456   1.998       .  S
O454        C461   1.248       .  A
O454       Co459   1.924       .  S
O455        C462   1.258       .  A
O455       Co458   1.874       .  S
Co456       O460   2.056       .  S
Co457       O460   2.053       .  S
Co458       O460   2.014       .  S
Co459       O460   2.070       .  S
C461       C3045   1.499       .  S
C462       C3135   1.497       .  S
C463       C3182   1.512       .  S
C464       C3085   1.500       .  S
O465        C473   1.233       .  A
O465       Co485   1.919       .  S
O466        C474   1.249       .  A
O466       Co486   1.944       .  S
O467        C475   1.253       .  A
O467       Co487   1.997       .  S
O468        C476   1.281       .  A
O468       Co488   2.065       .  S
O469        C475   1.243       .  A
O469       Co486   1.968       .  S
O470        C476   1.255       .  A
O470       Co485   1.953       .  S
O471        C474   1.279       .  A
O471       Co488   2.063       .  S
O472        C473   1.261       .  A
O472       Co487   2.034       .  S
C473       C3172   1.462       .  S
C474       C3095   1.501       .  S
C475       C3225   1.462       .  S
C476       C3042   1.492       .  S
O477        C490   1.237       .  A
O477       Co485   1.933       .  S
O478        C491   1.286       .  A
O478       Co486   2.076       .  S
O479        C492   1.258       .  A
O479       Co487   1.881       .  S
O480        C493   1.263       .  A
O480       Co488   1.976       .  S
O481        C493   1.273       .  A
O481       Co486   2.019       .  S
O482        C492   1.298       .  A
O482       Co485   2.092       .  S
O483        C490   1.273       .  A
O483       Co488   2.056       .  S
O484        C491   1.269       .  A
O484       Co487   1.980       .  S
Co485       O489   2.052       .  S
Co486       O489   2.045       .  S
Co487       O489   1.997       .  S
Co488       O489   2.113       .  S
C490       C3002   1.507       .  S
C491       C3375   1.524       .  S
C492       C3512   1.471       .  S
C493       C3012   1.497       .  S
O494        C502   1.264       .  A
O494       Co514   1.998       .  S
O495        C503   1.259       .  A
O495       Co515   2.021       .  S
O496        C504   1.267       .  A
O496       Co516   1.877       .  S
O497        C505   1.248       .  A
O497       Co517   1.941       .  S
O498        C504   1.306       .  A
O498       Co515   2.141       .  S
O499        C505   1.281       .  A
O499       Co514   2.088       .  S
O500        C503   1.250       .  A
O500       Co517   1.953       .  S
O501        C502   1.268       .  A
O501       Co516   1.996       .  S
C502       C2972   1.504       .  S
C503       C2995   1.491       .  S
C504       C2962   1.488       .  S
C505       C2982   1.510       .  S
O506        C519   1.250       .  A
O506       Co514   1.961       .  S
O507        C520   1.262       .  A
O507       Co515   1.880       .  S
O508        C521   1.272       .  A
O508       Co516   2.027       .  S
O509        C522   1.279       .  A
O509       Co517   2.028       .  S
O510        C522   1.275       .  A
O510       Co515   1.992       .  S
O511        C521   1.260       .  A
O511       Co514   1.981       .  S
O512        C519   1.276       .  A
O512       Co517   2.078       .  S
O513        C520   1.302       .  A
O513       Co516   2.143       .  S
Co514       O518   2.045       .  S
Co515       O518   2.028       .  S
Co516       O518   2.035       .  S
Co517       O518   2.049       .  S
C519       C2952   1.514       .  S
C520       C3622   1.507       .  S
C521       C3945   1.499       .  S
C522       C3105   1.521       .  S
O523        C531   1.255       .  A
O523       Co543   1.998       .  S
O524        C532   1.242       .  A
O524       Co544   1.937       .  S
O525        C533   1.257       .  A
O525       Co545   1.980       .  S
O526        C534   1.271       .  A
O526       Co546   1.967       .  S
O527        C533   1.262       .  A
O527       Co544   2.007       .  S
O528        C534   1.286       .  A
O528       Co543   2.026       .  S
O529        C532   1.262       .  A
O529       Co546   2.021       .  S
O530        C531   1.258       .  A
O530       Co545   2.038       .  S
C531       C3885   1.524       .  S
C532       C2902   1.473       .  S
C533       C3385   1.514       .  S
C534       C2912   1.475       .  S
O535        C548   1.264       .  A
O535       Co543   2.024       .  S
O536        C549   1.268       .  A
O536       Co544   2.006       .  S
O537        C550   1.264       .  A
O537       Co545   1.972       .  S
O538        C551   1.264       .  A
O538       Co546   1.971       .  S
O539        C551   1.277       .  A
O539       Co544   2.060       .  S
O540        C550   1.280       .  A
O540       Co543   1.975       .  S
O541        C548   1.255       .  A
O541       Co546   1.999       .  S
O542        C549   1.245       .  A
O542       Co545   1.917       .  S
Co543       O547   1.999       .  S
Co544       O547   2.086       .  S
Co545       O547   2.082       .  S
Co546       O547   2.102       .  S
C548       C2985   1.508       .  S
C549       C2922   1.473       .  S
C550       C2932   1.493       .  S
C551       C2942   1.505       .  S
O552        C560   1.255       .  A
O552       Co572   1.995       .  S
O553        C561   1.262       .  A
O553       Co573   2.038       .  S
O554        C562   1.256       .  A
O554       Co574   2.004       .  S
O555        C563   1.259       .  A
O555       Co575   1.976       .  S
O556        C562   1.249       .  A
O556       Co573   1.954       .  S
O557        C563   1.266       .  A
O557       Co572   2.013       .  S
O558        C561   1.253       .  A
O558       Co575   1.984       .  S
O559        C560   1.252       .  A
O559       Co574   1.981       .  S
C560       C2882   1.495       .  S
C561       C2945   1.506       .  S
C562       C2892   1.473       .  S
C563       C2992   1.494       .  S
O564        C577   1.255       .  A
O564       Co572   1.983       .  S
O565        C578   1.288       .  A
O565       Co573   2.057       .  S
O566        C579   1.303       .  A
O566       Co574   2.086       .  S
O567        C580   1.281       .  A
O567       Co575   2.078       .  S
O568        C580   1.252       .  A
O568       Co573   1.954       .  S
O569        C579   1.268       .  A
O569       Co572   1.912       .  S
O570        C577   1.265       .  A
O570       Co575   2.022       .  S
O571        C578   1.268       .  A
O571       Co574   1.915       .  S
Co572       O576   1.953       .  S
Co573       O576   2.136       .  S
Co574       O576   2.135       .  S
Co575       O576   2.120       .  S
C577       C3155   1.510       .  S
C578       C3685   1.496       .  S
C579       C3745   1.519       .  S
C580       C2872   1.507       .  S
O581        C589   1.295       .  A
O581       Co601   2.110       .  S
O582        C590   1.282       .  A
O582       Co602   2.041       .  S
O583        C591   1.277       .  A
O583       Co603   2.002       .  S
O584        C592   1.266       .  A
O584       Co604   1.995       .  S
O585        C591   1.278       .  A
O585       Co602   2.035       .  S
O586        C592   1.272       .  A
O586       Co601   2.027       .  S
O587        C590   1.267       .  A
O587       Co604   1.965       .  S
O588        C589   1.272       .  A
O588       Co603   1.899       .  S
C589       C3695   1.502       .  S
C590       C3015   1.497       .  S
C591       C3395   1.521       .  S
C592       C2842   1.521       .  S
O593        C606   1.270       .  A
O593       Co601   1.983       .  S
O594        C607   1.257       .  A
O594       Co602   1.959       .  S
O595        C608   1.286       .  A
O595       Co603   2.089       .  S
O596        C609   1.271       .  A
O596       Co604   2.044       .  S
O597        C609   1.251       .  A
O597       Co602   1.962       .  S
O598        C608   1.268       .  A
O598       Co601   1.917       .  S
O599        C606   1.278       .  A
O599       Co604   2.042       .  S
O600        C607   1.272       .  A
O600       Co603   2.027       .  S
Co601       O605   2.009       .  S
Co602       O605   2.019       .  S
Co603       O605   2.029       .  S
Co604       O605   2.072       .  S
C606       C2852   1.519       .  S
C607       C2925   1.493       .  S
C608       C2895   1.487       .  S
C609       C2862   1.496       .  S
O610        C618   1.261       .  A
O610       Co630   1.978       .  S
O611        C619   1.279       .  A
O611       Co631   2.018       .  S
O612        C620   1.252       .  A
O612       Co632   1.962       .  S
O613        C621   1.270       .  A
O613       Co633   2.052       .  S
O614        C620   1.264       .  A
O614       Co631   1.994       .  S
O615        C621   1.251       .  A
O615       Co630   1.965       .  S
O616        C619   1.274       .  A
O616       Co633   1.987       .  S
O617        C618   1.280       .  A
O617       Co632   2.058       .  S
C618       C2975   1.505       .  S
C619       C2865   1.509       .  S
C620       C2935   1.491       .  S
C621       C2835   1.510       .  S
O622        C635   1.281       .  A
O622       Co630   2.036       .  S
O623        C636   1.279       .  A
O623       Co631   1.949       .  S
O624        C637   1.254       .  A
O624       Co632   1.938       .  S
O625        C638   1.260       .  A
O625       Co633   2.015       .  S
O626        C638   1.255       .  A
O626       Co631   2.004       .  S
O627        C637   1.276       .  A
O627       Co630   2.029       .  S
O628        C635   1.270       .  A
O628       Co633   1.971       .  S
O629        C636   1.293       .  A
O629       Co632   2.066       .  S
Co630       O634   2.064       .  S
Co631       O634   1.970       .  S
Co632       O634   2.074       .  S
Co633       O634   2.088       .  S
C635       C2822   1.482       .  S
C636       C3892   1.510       .  S
C637       C3952   1.494       .  S
C638       C3055   1.512       .  S
O639        C647   1.279       .  A
O639       Co659   2.037       .  S
O640        C648   1.276       .  A
O640       Co660   2.068       .  S
O641        C649   1.268       .  A
O641       Co661   1.994       .  S
O642        C650   1.260       .  A
O642       Co662   2.011       .  S
O643        C649   1.266       .  A
O643       Co660   1.998       .  S
O644        C650   1.249       .  A
O644       Co659   1.962       .  S
O645        C648   1.246       .  A
O645       Co662   1.947       .  S
O646        C647   1.263       .  A
O646       Co661   1.918       .  S
C647       C2885   1.474       .  S
C648       C2832   1.504       .  S
C649       C2965   1.484       .  S
C650       C2855   1.497       .  S
O651        C664   1.269       .  A
O651       Co659   1.973       .  S
O652        C665   1.264       .  A
O652       Co660   2.014       .  S
O653        C666   1.262       .  A
O653       Co661   2.040       .  S
O654        C667   1.270       .  A
O654       Co662   2.028       .  S
O655        C667   1.255       .  A
O655       Co660   1.955       .  S
O656        C666   1.247       .  A
O656       Co659   1.966       .  S
O657        C664   1.276       .  A
O657       Co662   2.017       .  S
O658        C665   1.257       .  A
O658       Co661   1.991       .  S
Co659       O663   2.093       .  S
Co660       O663   2.103       .  S
Co661       O663   1.989       .  S
Co662       O663   2.093       .  S
C664       C2802   1.500       .  S
C665       C3632   1.511       .  S
C666       C3755   1.510       .  S
C667       C2815   1.497       .  S
O668        C676   1.284       .  A
O668       Co688   2.075       .  S
O669        C677   1.272       .  A
O669       Co689   2.013       .  S
O670        C678   1.231       .  A
O670       Co690   1.922       .  S
O671        C679   1.258       .  A
O671       Co691   1.953       .  S
O672        C678   1.273       .  A
O672       Co689   2.066       .  S
O673        C679   1.270       .  A
O673       Co688   2.011       .  S
O674        C677   1.266       .  A
O674       Co691   1.997       .  S
O675        C676   1.254       .  A
O675       Co690   1.936       .  S
C676       C3602   1.490       .  S
C677       C2742   1.492       .  S
C678       C2772   1.492       .  S
C679       C2732   1.506       .  S
O680        C693   1.239       .  A
O680       Co688   1.932       .  S
O681        C694   1.272       .  A
O681       Co689   1.914       .  S
O682        C695   1.234       .  A
O682       Co690   1.950       .  S
O683        C696   1.273       .  A
O683       Co691   2.032       .  S
O684        C696   1.275       .  A
O684       Co689   2.003       .  S
O685        C695   1.245       .  A
O685       Co688   1.976       .  S
O686        C693   1.275       .  A
O686       Co691   2.077       .  S
O687        C694   1.284       .  A
O687       Co690   2.026       .  S
Co688       O692   2.082       .  S
Co689       O692   2.000       .  S
Co690       O692   2.068       .  S
Co691       O692   2.101       .  S
C693       C2782   1.511       .  S
C694       C2762   1.456       .  S
C695       C2752   1.448       .  S
C696       C2792   1.517       .  S
O697        C705   1.271       .  A
O697       Co717   1.999       .  S
O698        C706   1.266       .  A
O698       Co718   1.999       .  S
O699        C707   1.245       .  A
O699       Co719   1.965       .  S
O700        C708   1.257       .  A
O700       Co720   1.975       .  S
O701        C707   1.272       .  A
O701       Co718   2.058       .  S
O702        C708   1.261       .  A
O702       Co717   1.993       .  S
O703        C706   1.260       .  A
O703       Co720   1.977       .  S
O704        C705   1.266       .  A
O704       Co719   1.973       .  S
C705       C3445   1.481       .  S
C706       C3205   1.484       .  S
C707       C3345   1.521       .  S
C708       C2692   1.479       .  S
O709        C722   1.254       .  A
O709       Co717   1.965       .  S
O710        C723   1.268       .  A
O710       Co718   1.937       .  S
O711        C724   1.235       .  A
O711       Co719   1.932       .  S
O712        C725   1.264       .  A
O712       Co720   2.006       .  S
O713        C725   1.270       .  A
O713       Co718   1.989       .  S
O714        C724   1.259       .  A
O714       Co717   2.010       .  S
O715        C722   1.279       .  A
O715       Co720   2.074       .  S
O716        C723   1.270       .  A
O716       Co719   2.020       .  S
Co717       O721   2.120       .  S
Co718       O721   2.029       .  S
Co719       O721   2.052       .  S
Co720       O721   2.102       .  S
C722       C2795   1.520       .  S
C723       C2702   1.483       .  S
C724       C2712   1.458       .  S
C725       C2722   1.504       .  S
O726        C734   1.262       .  A
O726       Co746   1.991       .  S
O727        C735   1.282       .  A
O727       Co747   2.050       .  S
O728        C736   1.255       .  A
O728       Co748   1.892       .  S
O729        C737   1.254       .  A
O729       Co749   1.989       .  S
O730        C736   1.296       .  A
O730       Co747   2.126       .  S
O731        C737   1.252       .  A
O731       Co746   1.981       .  S
O732        C735   1.256       .  A
O732       Co749   1.958       .  S
O733        C734   1.266       .  A
O733       Co748   2.008       .  S
C734       C3525   1.487       .  S
C735       C2662   1.485       .  S
C736       C3265   1.494       .  S
C737       C3165   1.478       .  S
O738        C751   1.257       .  A
O738       Co746   1.918       .  S
O739        C752   1.276       .  A
O739       Co747   1.906       .  S
O740        C753   1.286       .  A
O740       Co748   2.048       .  S
O741        C754   1.271       .  A
O741       Co749   2.044       .  S
O742        C754   1.274       .  A
O742       Co747   2.017       .  S
O743        C753   1.249       .  A
O743       Co746   1.959       .  S
O744        C751   1.285       .  A
O744       Co749   2.059       .  S
O745        C752   1.317       .  A
O745       Co748   2.139       .  S
Co746       O750   2.064       .  S
Co747       O750   2.033       .  S
Co748       O750   2.007       .  S
Co749       O750   2.059       .  S
C751       C2725   1.499       .  S
C752       C2682   1.497       .  S
C753       C2672   1.513       .  S
C754       C2785   1.529       .  S
O755        C763   1.271       .  A
O755       Co775   1.998       .  S
O756        C764   1.263       .  A
O756       Co776   2.001       .  S
O757        C765   1.247       .  A
O757       Co777   1.985       .  S
O758        C766   1.257       .  A
O758       Co778   1.967       .  S
O759        C765   1.274       .  A
O759       Co776   2.067       .  S
O760        C766   1.261       .  A
O760       Co775   1.985       .  S
O761        C764   1.252       .  A
O761       Co778   1.966       .  S
O762        C763   1.265       .  A
O762       Co777   1.976       .  S
C763       C3455   1.493       .  S
C764       C3065   1.472       .  S
C765       C2632   1.549       .  S
C766       C2622   1.473       .  S
O767        C780   1.256       .  A
O767       Co775   1.973       .  S
O768        C781   1.264       .  A
O768       Co776   1.936       .  S
O769        C782   1.233       .  A
O769       Co777   1.933       .  S
O770        C783   1.273       .  A
O770       Co778   2.037       .  S
O771        C783   1.258       .  A
O771       Co776   1.985       .  S
O772        C782   1.258       .  A
O772       Co775   2.007       .  S
O773        C780   1.273       .  A
O773       Co778   2.055       .  S
O774        C781   1.264       .  A
O774       Co777   1.980       .  S
Co775       O779   2.128       .  S
Co776       O779   2.045       .  S
Co777       O779   2.040       .  S
Co778       O779   2.103       .  S
C780       C2642   1.522       .  S
C781       C2765   1.445       .  S
C782       C2715   1.456       .  S
C783       C2652   1.497       .  S
O784        C792   1.263       .  A
O784       Co804   2.017       .  S
O785        C793   1.270       .  A
O785       Co805   2.029       .  S
O786        C794   1.293       .  A
O786       Co806   2.062       .  S
O787        C795   1.271       .  A
O787       Co807   1.982       .  S
O788        C794   1.283       .  A
O788       Co805   1.925       .  S
O789        C795   1.268       .  A
O789       Co804   1.994       .  S
O790        C793   1.261       .  A
O790       Co807   1.976       .  S
O791        C792   1.261       .  A
O791       Co806   1.999       .  S
C792       C3532   1.514       .  S
C793       C2602   1.502       .  S
C794       C3352   1.504       .  S
C795       C2592   1.487       .  S
O796        C809   1.263       .  A
O796       Co804   1.979       .  S
O797        C810   1.297       .  A
O797       Co805   2.084       .  S
O798        C811   1.305       .  A
O798       Co806   2.130       .  S
O799        C812   1.276       .  A
O799       Co807   2.033       .  S
O800        C812   1.271       .  A
O800       Co805   1.993       .  S
O801        C811   1.266       .  A
O801       Co804   1.860       .  S
O802        C809   1.264       .  A
O802       Co807   2.002       .  S
O803        C810   1.268       .  A
O803       Co806   1.907       .  S
Co804       O808   1.918       .  S
Co805       O808   2.038       .  S
Co806       O808   2.063       .  S
Co807       O808   2.071       .  S
C809       C2612   1.504       .  S
C810       C2705   1.497       .  S
C811       C2675   1.498       .  S
C812       C2645   1.531       .  S
O813        C821   1.267       .  A
O813       Co833   2.010       .  S
O814        C822   1.240       .  A
O814       Co834   1.955       .  S
O815        C823   1.266       .  A
O815       Co835   1.934       .  S
O816        C824   1.270       .  A
O816       Co836   2.014       .  S
O817        C823   1.276       .  A
O817       Co834   2.052       .  S
O818        C824   1.261       .  A
O818       Co833   1.984       .  S
O819        C822   1.254       .  A
O819       Co836   2.040       .  S
O820        C821   1.249       .  A
O820       Co835   1.991       .  S
C821       C3615   1.497       .  S
C822       C2582   1.493       .  S
C823       C3275   1.463       .  S
C824       C3035   1.504       .  S
O825        C838   1.264       .  A
O825       Co833   1.997       .  S
O826        C839   1.278       .  A
O826       Co834   2.058       .  S
O827        C840   1.290       .  A
O827       Co835   2.018       .  S
O828        C841   1.246       .  A
O828       Co836   1.930       .  S
O829        C841   1.274       .  A
O829       Co834   2.055       .  S
O830        C840   1.249       .  A
O830       Co833   1.983       .  S
O831        C838   1.256       .  A
O831       Co836   1.983       .  S
O832        C839   1.248       .  A
O832       Co835   2.007       .  S
Co833       O837   2.116       .  S
Co834       O837   2.186       .  S
Co835       O837   1.988       .  S
Co836       O837   2.154       .  S
C838       C2655   1.506       .  S
C839       C2685   1.517       .  S
C840       C2755   1.456       .  S
C841       C2615   1.484       .  S
O842        C850   1.279       .  A
O842       Co862   2.048       .  S
O843        C851   1.251       .  A
O843       Co863   1.985       .  S
O844        C852   1.285       .  A
O844       Co864   2.019       .  S
O845        C853   1.267       .  A
O845       Co865   1.991       .  S
O846        C852   1.288       .  A
O846       Co863   1.995       .  S
O847        C853   1.271       .  A
O847       Co862   2.019       .  S
O848        C851   1.256       .  A
O848       Co865   1.977       .  S
O849        C850   1.262       .  A
O849       Co864   1.954       .  S
C850       C3922   1.519       .  S
C851       C2735   1.476       .  S
C852       C3585   1.502       .  S
C853       C2532   1.511       .  S
O854        C867   1.260       .  A
O854       Co862   1.968       .  S
O855        C868   1.253       .  A
O855       Co863   1.969       .  S
O856        C869   1.258       .  A
O856       Co864   1.960       .  S
O857        C870   1.270       .  A
O857       Co865   1.982       .  S
O858        C870   1.279       .  A
O858       Co863   2.021       .  S
O859        C869   1.263       .  A
O859       Co862   1.978       .  S
O860        C867   1.270       .  A
O860       Co865   2.042       .  S
O861        C868   1.266       .  A
O861       Co864   2.038       .  S
Co862       O866   2.066       .  S
Co863       O866   1.988       .  S
Co864       O866   2.074       .  S
Co865       O866   2.081       .  S
C867       C2562   1.495       .  S
C868       C2552   1.505       .  S
C869       C2542   1.469       .  S
C870       C2572   1.494       .  S
O871        C879   1.255       .  A
O871       Co891   1.987       .  S
O872        C880   1.250       .  A
O872       Co892   1.970       .  S
O873        C881   1.267       .  A
O873       Co893   1.996       .  S
O874        C882   1.272       .  A
O874       Co894   1.991       .  S
O875        C881   1.260       .  A
O875       Co892   1.961       .  S
O876        C882   1.281       .  A
O876       Co891   2.024       .  S
O877        C880   1.263       .  A
O877       Co894   2.040       .  S
O878        C879   1.266       .  A
O878       Co893   2.048       .  S
C879       C2512   1.520       .  S
C880       C2575   1.493       .  S
C881       C2502   1.469       .  S
C882       C2525   1.496       .  S
O883        C896   1.261       .  A
O883       Co891   2.010       .  S
O884        C897   1.273       .  A
O884       Co892   2.032       .  S
O885        C898   1.285       .  A
O885       Co893   2.029       .  S
O886        C899   1.270       .  A
O886       Co894   1.972       .  S
O887        C899   1.283       .  A
O887       Co892   2.043       .  S
O888        C898   1.288       .  A
O888       Co891   1.984       .  S
O889        C896   1.258       .  A
O889       Co894   2.000       .  S
O890        C897   1.262       .  A
O890       Co893   1.957       .  S
Co891       O895   1.978       .  S
Co892       O895   2.055       .  S
Co893       O895   2.090       .  S
Co894       O895   2.094       .  S
C896       C2875   1.504       .  S
C897       C3285   1.509       .  S
C898       C3662   1.504       .  S
C899       C2665   1.487       .  S
O900        C908   1.259       .  A
O900       Co920   2.000       .  S
O901        C909   1.267       .  A
O901       Co921   1.982       .  S
O902        C910   1.281       .  A
O902       Co922   2.037       .  S
O903        C911   1.274       .  A
O903       Co923   2.050       .  S
O904        C910   1.265       .  A
O904       Co921   1.889       .  S
O905        C911   1.255       .  A
O905       Co920   1.959       .  S
O906        C909   1.271       .  A
O906       Co923   2.033       .  S
O907        C908   1.242       .  A
O907       Co922   1.930       .  S
C908       C2495   1.474       .  S
C909       C2522   1.512       .  S
C910       C2482   1.449       .  S
C911       C2565   1.493       .  S
O912        C925   1.262       .  A
O912       Co920   2.012       .  S
O913        C926   1.277       .  A
O913       Co921   2.078       .  S
O914        C927   1.263       .  A
O914       Co922   1.972       .  S
O915        C928   1.248       .  A
O915       Co923   1.946       .  S
O916        C928   1.265       .  A
O916       Co921   2.019       .  S
O917        C927   1.270       .  A
O917       Co920   1.998       .  S
O918        C925   1.253       .  A
O918       Co923   1.963       .  S
O919        C926   1.244       .  A
O919       Co922   1.953       .  S
Co920       O924   2.099       .  S
Co921       O924   2.029       .  S
Co922       O924   2.054       .  S
Co923       O924   2.072       .  S
C925       C2472   1.477       .  S
C926       C3405   1.527       .  S
C927       C3482   1.477       .  S
C928       C2905   1.477       .  S
O929        C937   1.271       .  A
O929       Co949   2.056       .  S
O930        C938   1.274       .  A
O930       Co950   2.014       .  S
O931        C939   1.263       .  A
O931       Co951   1.953       .  S
O932        C940   1.260       .  A
O932       Co952   1.989       .  S
O933        C939   1.279       .  A
O933       Co950   2.050       .  S
O934        C940   1.265       .  A
O934       Co949   2.007       .  S
O935        C938   1.261       .  A
O935       Co952   1.944       .  S
O936        C937   1.239       .  A
O936       Co951   1.947       .  S
C937       C3935   1.516       .  S
C938       C2625   1.481       .  S
C939       C3495   1.496       .  S
C940       C2825   1.483       .  S
O941        C954   1.270       .  A
O941       Co949   1.981       .  S
O942        C955   1.258       .  A
O942       Co950   1.990       .  S
O943        C956   1.293       .  A
O943       Co951   2.061       .  S
O944        C957   1.269       .  A
O944       Co952   2.055       .  S
O945        C957   1.249       .  A
O945       Co950   1.954       .  S
O946        C956   1.266       .  A
O946       Co949   1.868       .  S
O947        C954   1.277       .  A
O947       Co952   2.038       .  S
O948        C955   1.248       .  A
O948       Co951   1.966       .  S
Co949       O953   1.975       .  S
Co950       O953   2.072       .  S
Co951       O953   2.069       .  S
Co952       O953   2.085       .  S
C954       C2465   1.500       .  S
C955       C2492   1.467       .  S
C956       C2545   1.457       .  S
C957       C2452   1.512       .  S
O958        C966   1.249       .  A
O958       Co978   1.981       .  S
O959        C967   1.252       .  A
O959       Co979   1.971       .  S
O960        C968   1.252       .  A
O960       Co980   1.944       .  S
O961        C969   1.270       .  A
O961       Co981   1.981       .  S
O962        C968   1.262       .  A
O962       Co979   1.975       .  S
O963        C969   1.280       .  A
O963       Co978   2.024       .  S
O964        C967   1.265       .  A
O964       Co981   2.045       .  S
O965        C966   1.259       .  A
O965       Co980   2.043       .  S
C966       C2515   1.525       .  S
C967       C2455   1.509       .  S
C968       C2485   1.471       .  S
C969       C2445   1.485       .  S
O970        C983   1.260       .  A
O970       Co978   2.009       .  S
O971        C984   1.267       .  A
O971       Co979   2.010       .  S
O972        C985   1.274       .  A
O972       Co980   2.009       .  S
O973        C986   1.268       .  A
O973       Co981   1.987       .  S
O974        C986   1.280       .  A
O974       Co979   2.041       .  S
O975        C985   1.281       .  A
O975       Co978   1.981       .  S
O976        C983   1.256       .  A
O976       Co981   1.985       .  S
O977        C984   1.256       .  A
O977       Co980   1.946       .  S
Co978       O982   2.006       .  S
Co979       O982   2.080       .  S
Co980       O982   2.107       .  S
Co981       O982   2.098       .  S
C983       C2432   1.487       .  S
C984       C3415   1.501       .  S
C985       C3675   1.487       .  S
C986       C2605   1.503       .  S
O987        C995   1.280       .  A
O987      Co1007   2.040       .  S
O988        C996   1.266       .  A
O988      Co1008   2.033       .  S
O989        C997   1.261       .  A
O989      Co1009   1.900       .  S
O990        C998   1.245       .  A
O990      Co1010   1.938       .  S
O991        C997   1.282       .  A
O991      Co1008   2.078       .  S
O992        C998   1.274       .  A
O992      Co1007   2.063       .  S
O993        C996   1.248       .  A
O993      Co1010   1.938       .  S
O994        C995   1.270       .  A
O994      Co1009   1.984       .  S
C995       C2555   1.509       .  S
C996       C2442   1.480       .  S
C997       C2505   1.469       .  S
C998       C2462   1.502       .  S
O999       C1012   1.258       .  A
O999      Co1007   1.952       .  S
O1000      C1013   1.266       .  A
O1000     Co1008   1.904       .  S
O1001      C1014   1.263       .  A
O1001     Co1009   2.026       .  S
O1002      C1015   1.275       .  A
O1002     Co1010   2.037       .  S
O1003      C1015   1.265       .  A
O1003     Co1008   1.971       .  S
O1004      C1014   1.257       .  A
O1004     Co1007   1.977       .  S
O1005      C1012   1.275       .  A
O1005     Co1010   2.035       .  S
O1006      C1013   1.292       .  A
O1006     Co1009   2.099       .  S
Co1007     O1011   2.056       .  S
Co1008     O1011   2.026       .  S
Co1009     O1011   2.038       .  S
Co1010     O1011   2.048       .  S
C1012      C2812   1.492       .  S
C1013      C3295   1.495       .  S
C1014      C3595   1.517       .  S
C1015      C2422   1.494       .  S
O1016      C1024   1.272       .  A
O1016     Co1036   2.066       .  S
O1017      C1025   1.269       .  A
O1017     Co1037   2.020       .  S
O1018      C1026   1.260       .  A
O1018     Co1038   1.966       .  S
O1019      C1027   1.251       .  A
O1019     Co1039   1.961       .  S
O1020      C1026   1.278       .  A
O1020     Co1037   2.048       .  S
O1021      C1027   1.264       .  A
O1021     Co1036   2.015       .  S
O1022      C1025   1.257       .  A
O1022     Co1039   1.953       .  S
O1023      C1024   1.227       .  A
O1023     Co1038   1.897       .  S
C1024      C2395   1.486       .  S
C1025      C2412   1.501       .  S
C1026      C2382   1.515       .  S
C1027      C2402   1.475       .  S
O1028      C1041   1.269       .  A
O1028     Co1036   1.992       .  S
O1029      C1042   1.255       .  A
O1029     Co1037   1.999       .  S
O1030      C1043   1.293       .  A
O1030     Co1038   2.071       .  S
O1031      C1044   1.270       .  A
O1031     Co1039   2.030       .  S
O1032      C1044   1.247       .  A
O1032     Co1037   1.940       .  S
O1033      C1043   1.270       .  A
O1033     Co1036   1.904       .  S
O1034      C1041   1.279       .  A
O1034     Co1039   2.055       .  S
O1035      C1042   1.234       .  A
O1035     Co1038   1.927       .  S
Co1036     O1040   2.010       .  S
Co1037     O1040   2.095       .  S
Co1038     O1040   2.059       .  S
Co1039     O1040   2.082       .  S
C1041      C2372   1.516       .  S
C1042      C3465   1.471       .  S
C1043      C4102   1.473       .  S
C1044      C2475   1.496       .  S
O1045      C1053   1.279       .  A
O1045     Co1065   1.906       .  S
O1046      C1054   1.276       .  A
O1046     Co1066   2.001       .  S
O1047      C1055   1.242       .  A
O1047     Co1067   1.947       .  S
O1048      C1056   1.268       .  A
O1048     Co1068   2.008       .  S
O1049      C1055   1.259       .  A
O1049     Co1066   2.019       .  S
O1050      C1056   1.274       .  A
O1050     Co1065   2.005       .  S
O1051      C1054   1.273       .  A
O1051     Co1068   1.978       .  S
O1052      C1053   1.297       .  A
O1052     Co1067   2.067       .  S
C1053      C3725   1.477       .  S
C1054      C2332   1.467       .  S
C1055      C3305   1.494       .  S
C1056      C2322   1.504       .  S
O1057      C1070   1.274       .  A
O1057     Co1065   2.001       .  S
O1058      C1071   1.277       .  A
O1058     Co1066   1.924       .  S
O1059      C1072   1.235       .  A
O1059     Co1067   1.924       .  S
O1060      C1073   1.261       .  A
O1060     Co1068   1.992       .  S
O1061      C1073   1.262       .  A
O1061     Co1066   1.985       .  S
O1062      C1072   1.264       .  A
O1062     Co1065   2.032       .  S
O1063      C1070   1.268       .  A
O1063     Co1068   1.978       .  S
O1064      C1071   1.291       .  A
O1064     Co1067   2.068       .  S
Co1065     O1069   1.942       .  S
Co1066     O1069   1.932       .  S
Co1067     O1069   2.115       .  S
Co1068     O1069   2.037       .  S
C1070      C2405   1.471       .  S
C1071      C2345   1.496       .  S
C1072      C2352   1.482       .  S
C1073      C2362   1.478       .  S
O1074      C1082   1.275       .  A
O1074     Co1094   2.027       .  S
O1075      C1083   1.236       .  A
O1075     Co1095   1.950       .  S
O1076      C1084   1.245       .  A
O1076     Co1096   1.933       .  S
O1077      C1085   1.258       .  A
O1077     Co1097   2.012       .  S
O1078      C1084   1.269       .  A
O1078     Co1095   2.017       .  S
O1079      C1085   1.250       .  A
O1079     Co1094   1.977       .  S
O1080      C1083   1.257       .  A
O1080     Co1097   2.028       .  S
O1081      C1082   1.262       .  A
O1081     Co1096   1.979       .  S
C1082      C4002   1.493       .  S
C1083      C2535   1.495       .  S
C1084      C3905   1.443       .  S
C1085      C2295   1.490       .  S
O1086      C1099   1.272       .  A
O1086     Co1094   1.891       .  S
O1087      C1100   1.255       .  A
O1087     Co1095   1.988       .  S
O1088      C1101   1.258       .  A
O1088     Co1096   1.977       .  S
O1089      C1102   1.297       .  A
O1089     Co1097   2.079       .  S
O1090      C1102   1.271       .  A
O1090     Co1095   1.919       .  S
O1091      C1101   1.267       .  A
O1091     Co1094   2.015       .  S
O1092      C1099   1.291       .  A
O1092     Co1097   2.058       .  S
O1093      C1100   1.272       .  A
O1093     Co1096   2.057       .  S
Co1094     O1098   1.940       .  S
Co1095     O1098   1.928       .  S
Co1096     O1098   2.077       .  S
Co1097     O1098   2.241       .  S
C1099      C2365   1.494       .  S
C1100      C2312   1.499       .  S
C1101      C2302   1.492       .  S
C1102      C2415   1.497       .  S
O1103      C1111   1.269       .  A
O1103     Co1123   2.029       .  S
O1104      C1112   1.264       .  A
O1104     Co1124   2.033       .  S
O1105      C1113   1.259       .  A
O1105     Co1125   1.889       .  S
O1106      C1114   1.258       .  A
O1106     Co1126   1.960       .  S
O1107      C1113   1.292       .  A
O1107     Co1124   2.080       .  S
O1108      C1114   1.271       .  A
O1108     Co1123   2.023       .  S
O1109      C1112   1.242       .  A
O1109     Co1126   1.952       .  S
O1110      C1111   1.257       .  A
O1110     Co1125   1.986       .  S
C1111      C2392   1.485       .  S
C1112      C2275   1.495       .  S
C1113      C2355   1.490       .  S
C1114      C2285   1.500       .  S
O1115      C1128   1.252       .  A
O1115     Co1123   1.930       .  S
O1116      C1129   1.257       .  A
O1116     Co1124   1.893       .  S
O1117      C1130   1.266       .  A
O1117     Co1125   2.053       .  S
O1118      C1131   1.279       .  A
O1118     Co1126   2.069       .  S
O1119      C1131   1.256       .  A
O1119     Co1124   1.983       .  S
O1120      C1130   1.249       .  A
O1120     Co1123   1.964       .  S
O1121      C1128   1.266       .  A
O1121     Co1126   1.997       .  S
O1122      C1129   1.301       .  A
O1122     Co1125   2.109       .  S
Co1123     O1127   2.074       .  S
Co1124     O1127   2.045       .  S
Co1125     O1127   2.061       .  S
Co1126     O1127   2.081       .  S
C1128      C2265   1.473       .  S
C1129      C3732   1.508       .  S
C1130      C4112   1.513       .  S
C1131      C2435   1.506       .  S
O1132      C1140   1.257       .  A
O1132     Co1152   1.971       .  S
O1133      C1141   1.274       .  A
O1133     Co1153   2.009       .  S
O1134      C1142   1.262       .  A
O1134     Co1154   2.010       .  S
O1135      C1143   1.267       .  A
O1135     Co1155   2.041       .  S
O1136      C1142   1.270       .  A
O1136     Co1153   2.020       .  S
O1137      C1143   1.249       .  A
O1137     Co1152   1.959       .  S
O1138      C1141   1.274       .  A
O1138     Co1155   1.999       .  S
O1139      C1140   1.272       .  A
O1139     Co1154   2.028       .  S
C1140      C2315   1.509       .  S
C1141      C2282   1.492       .  S
C1142      C2385   1.523       .  S
C1143      C2252   1.486       .  S
O1144      C1157   1.281       .  A
O1144     Co1152   2.056       .  S
O1145      C1158   1.275       .  A
O1145     Co1153   1.938       .  S
O1146      C1159   1.261       .  A
O1146     Co1154   1.947       .  S
O1147      C1160   1.255       .  A
O1147     Co1155   1.984       .  S
O1148      C1160   1.258       .  A
O1148     Co1153   2.010       .  S
O1149      C1159   1.276       .  A
O1149     Co1152   2.029       .  S
O1150      C1157   1.270       .  A
O1150     Co1155   2.000       .  S
O1151      C1158   1.292       .  A
O1151     Co1154   2.062       .  S
Co1152     O1156   2.054       .  S
Co1153     O1156   1.987       .  S
Co1154     O1156   2.098       .  S
Co1155     O1156   2.110       .  S
C1157      C2232   1.534       .  S
C1158      C3475   1.514       .  S
C1159      C3915   1.494       .  S
C1160      C2242   1.495       .  S
O1161      C1169   1.299       .  A
O1161     Co1181   2.145       .  S
O1162      C1170   1.262       .  A
O1162     Co1182   2.008       .  S
O1163      C1171   1.260       .  A
O1163     Co1183   1.988       .  S
O1164      C1172   1.260       .  A
O1164     Co1184   1.979       .  S
O1165      C1171   1.248       .  A
O1165     Co1182   1.961       .  S
O1166      C1172   1.268       .  A
O1166     Co1181   2.008       .  S
O1167      C1170   1.249       .  A
O1167     Co1184   1.967       .  S
O1168      C1169   1.250       .  A
O1168     Co1183   1.896       .  S
C1169      C4015   1.516       .  S
C1170      C2425   1.499       .  S
C1171      C3315   1.477       .  S
C1172      C2222   1.498       .  S
O1173      C1186   1.273       .  A
O1173     Co1181   2.008       .  S
O1174      C1187   1.261       .  A
O1174     Co1182   2.005       .  S
O1175      C1188   1.313       .  A
O1175     Co1183   2.131       .  S
O1176      C1189   1.290       .  A
O1176     Co1184   2.090       .  S
O1177      C1189   1.254       .  A
O1177     Co1182   1.938       .  S
O1178      C1188   1.271       .  A
O1178     Co1181   1.896       .  S
O1179      C1186   1.267       .  A
O1179     Co1184   2.007       .  S
O1180      C1187   1.284       .  A
O1180     Co1183   2.038       .  S
Co1181     O1185   2.039       .  S
Co1182     O1185   2.051       .  S
Co1183     O1185   1.999       .  S
Co1184     O1185   2.057       .  S
C1186      C2255   1.494       .  S
C1187      C2342   1.499       .  S
C1188      C2305   1.494       .  S
C1189      C2272   1.506       .  S
O1190      C1198   1.283       .  A
O1190     Co1210   2.051       .  S
O1191      C1199   1.263       .  A
O1191     Co1211   2.010       .  S
O1192      C1200   1.273       .  A
O1192     Co1212   1.932       .  S
O1193      C1201   1.261       .  A
O1193     Co1213   1.970       .  S
O1194      C1200   1.290       .  A
O1194     Co1211   2.088       .  S
O1195      C1201   1.272       .  A
O1195     Co1210   2.027       .  S
O1196      C1199   1.253       .  A
O1196     Co1213   1.965       .  S
O1197      C1198   1.271       .  A
O1197     Co1212   1.982       .  S
C1198      C4085   1.499       .  S
C1199      C2695   1.480       .  S
C1200      C3425   1.510       .  S
C1201      C2172   1.505       .  S
O1202      C1215   1.257       .  A
O1202     Co1210   1.945       .  S
O1203      C1216   1.261       .  A
O1203     Co1211   1.906       .  S
O1204      C1217   1.261       .  A
O1204     Co1212   2.009       .  S
O1205      C1218   1.283       .  A
O1205     Co1213   2.060       .  S
O1206      C1218   1.270       .  A
O1206     Co1211   1.978       .  S
O1207      C1217   1.250       .  A
O1207     Co1210   1.963       .  S
O1208      C1215   1.268       .  A
O1208     Co1213   2.021       .  S
O1209      C1216   1.287       .  A
O1209     Co1212   2.094       .  S
Co1210     O1214   2.024       .  S
Co1211     O1214   2.010       .  S
Co1212     O1214   2.052       .  S
Co1213     O1214   2.053       .  S
C1215      C2202   1.484       .  S
C1216      C2192   1.498       .  S
C1217      C2185   1.476       .  S
C1218      C2212   1.508       .  S
O1219      C1227   1.220       .  A
O1219     Co1239   1.941       .  S
O1220      C1228   1.258       .  A
O1220     Co1240   1.961       .  S
O1221      C1229   1.273       .  A
O1221     Co1241   2.063       .  S
O1222      C1230   1.276       .  A
O1222     Co1242   2.092       .  S
O1223      C1229   1.252       .  A
O1223     Co1240   1.954       .  S
O1224      C1230   1.239       .  A
O1224     Co1239   1.926       .  S
O1225      C1228   1.276       .  A
O1225     Co1242   2.052       .  S
O1226      C1227   1.248       .  A
O1226     Co1241   2.090       .  S
C1227      C2145   1.491       .  S
C1228      C2215   1.495       .  S
C1229      C2132   1.494       .  S
C1230      C2162   1.531       .  S
O1231      C1244   1.264       .  A
O1231     Co1239   2.007       .  S
O1232      C1245   1.283       .  A
O1232     Co1240   2.079       .  S
O1233      C1246   1.275       .  A
O1233     Co1241   1.860       .  S
O1234      C1247   1.259       .  A
O1234     Co1242   1.983       .  S
O1235      C1247   1.267       .  A
O1235     Co1240   2.037       .  S
O1236      C1246   1.320       .  A
O1236     Co1239   2.171       .  S
O1237      C1244   1.256       .  A
O1237     Co1242   1.981       .  S
O1238      C1245   1.265       .  A
O1238     Co1241   1.978       .  S
Co1239     O1243   2.082       .  S
Co1240     O1243   2.070       .  S
Co1241     O1243   2.057       .  S
Co1242     O1243   2.145       .  S
C1244      C2292   1.503       .  S
C1245      C2152   1.524       .  S
C1246      C3982   1.495       .  S
C1247      C2745   1.499       .  S
O1248      C1256   1.245       .  A
O1248     Co1268   1.943       .  S
O1249      C1257   1.273       .  A
O1249     Co1269   1.997       .  S
O1250      C1258   1.291       .  A
O1250     Co1270   2.109       .  S
O1251      C1259   1.271       .  A
O1251     Co1271   2.036       .  S
O1252      C1258   1.266       .  A
O1252     Co1269   1.892       .  S
O1253      C1259   1.254       .  A
O1253     Co1268   1.937       .  S
O1254      C1257   1.279       .  A
O1254     Co1271   2.055       .  S
O1255      C1256   1.261       .  A
O1255     Co1270   1.997       .  S
C1256      C2122   1.469       .  S
C1257      C2165   1.541       .  S
C1258      C2112   1.509       .  S
C1259      C2205   1.489       .  S
O1260      C1273   1.266       .  A
O1260     Co1268   1.996       .  S
O1261      C1274   1.303       .  A
O1261     Co1269   2.140       .  S
O1262      C1275   1.272       .  A
O1262     Co1270   1.987       .  S
O1263      C1276   1.257       .  A
O1263     Co1271   1.964       .  S
O1264      C1276   1.265       .  A
O1264     Co1269   1.998       .  S
O1265      C1275   1.280       .  A
O1265     Co1268   2.037       .  S
O1266      C1273   1.265       .  A
O1266     Co1271   1.979       .  S
O1267      C1274   1.263       .  A
O1267     Co1270   1.902       .  S
Co1268     O1272   2.025       .  S
Co1269     O1272   2.022       .  S
Co1270     O1272   2.023       .  S
Co1271     O1272   2.062       .  S
C1273      C2102   1.504       .  S
C1274      C3322   1.512       .  S
C1275      C3565   1.517       .  S
C1276      C2335   1.482       .  S
O1277      C1285   1.250       .  A
O1277     Co1297   1.956       .  S
O1278      C1286   1.267       .  A
O1278     Co1298   1.979       .  S
O1279      C1287   1.283       .  A
O1279     Co1299   2.079       .  S
O1280      C1288   1.270       .  A
O1280     Co1300   2.046       .  S
O1281      C1287   1.272       .  A
O1281     Co1298   1.907       .  S
O1282      C1288   1.250       .  A
O1282     Co1297   1.951       .  S
O1283      C1286   1.276       .  A
O1283     Co1300   2.016       .  S
O1284      C1285   1.269       .  A
O1284     Co1299   2.026       .  S
C1285      C2142   1.488       .  S
C1286      C2082   1.494       .  S
C1287      C2115   1.485       .  S
C1288      C2092   1.489       .  S
O1289      C1302   1.273       .  A
O1289     Co1297   2.019       .  S
O1290      C1303   1.301       .  A
O1290     Co1298   2.120       .  S
O1291      C1304   1.269       .  A
O1291     Co1299   1.973       .  S
O1292      C1305   1.252       .  A
O1292     Co1300   1.960       .  S
O1293      C1305   1.270       .  A
O1293     Co1298   2.027       .  S
O1294      C1304   1.281       .  A
O1294     Co1297   2.035       .  S
O1295      C1302   1.258       .  A
O1295     Co1300   1.941       .  S
O1296      C1303   1.265       .  A
O1296     Co1299   1.907       .  S
Co1297     O1301   2.009       .  S
Co1298     O1301   2.023       .  S
Co1299     O1301   1.999       .  S
Co1300     O1301   2.047       .  S
C1302      C2075   1.467       .  S
C1303      C3335   1.523       .  S
C1304      C3995   1.503       .  S
C1305      C2585   1.514       .  S
O1306      C1314   1.264       .  A
O1306     Co1326   1.999       .  S
O1307      C1315   1.268       .  A
O1307     Co1327   2.013       .  S
O1308      C1316   1.245       .  A
O1308     Co1328   1.946       .  S
O1309      C1317   1.245       .  A
O1309     Co1329   1.927       .  S
O1310      C1316   1.275       .  A
O1310     Co1327   2.085       .  S
O1311      C1317   1.266       .  A
O1311     Co1326   2.021       .  S
O1312      C1315   1.256       .  A
O1312     Co1329   1.951       .  S
O1313      C1314   1.261       .  A
O1313     Co1328   1.964       .  S
C1314      C4092   1.463       .  S
C1315      C2595   1.485       .  S
C1316      C3575   1.536       .  S
C1317      C2262   1.457       .  S
O1318      C1331   1.245       .  A
O1318     Co1326   1.938       .  S
O1319      C1332   1.267       .  A
O1319     Co1327   1.905       .  S
O1320      C1333   1.245       .  A
O1320     Co1328   1.946       .  S
O1321      C1334   1.260       .  A
O1321     Co1329   1.975       .  S
O1322      C1334   1.268       .  A
O1322     Co1327   1.987       .  S
O1323      C1333   1.261       .  A
O1323     Co1326   2.000       .  S
O1324      C1331   1.275       .  A
O1324     Co1329   2.071       .  S
O1325      C1332   1.283       .  A
O1325     Co1328   2.045       .  S
Co1326     O1330   2.104       .  S
Co1327     O1330   2.027       .  S
Co1328     O1330   2.052       .  S
Co1329     O1330   2.082       .  S
C1331      C2062   1.493       .  S
C1332      C2125   1.457       .  S
C1333      C2182   1.482       .  S
C1334      C2085   1.497       .  S
O1335      C1343   1.268       .  A
O1335     Co1355   2.003       .  S
O1336      C1344   1.251       .  A
O1336     Co1356   1.955       .  S
O1337      C1345   1.275       .  A
O1337     Co1357   2.054       .  S
O1338      C1346   1.267       .  A
O1338     Co1358   1.971       .  S
O1339      C1345   1.252       .  A
O1339     Co1356   1.958       .  S
O1340      C1346   1.280       .  A
O1340     Co1355   2.034       .  S
O1341      C1344   1.262       .  A
O1341     Co1358   2.029       .  S
O1342      C1343   1.258       .  A
O1342     Co1357   1.982       .  S
C1343      C2195   1.503       .  S
C1344      C2095   1.490       .  S
C1345      C2135   1.511       .  S
C1346      C2065   1.506       .  S
O1347      C1360   1.257       .  A
O1347     Co1355   2.012       .  S
O1348      C1361   1.280       .  A
O1348     Co1356   2.047       .  S
O1349      C1362   1.300       .  A
O1349     Co1357   2.081       .  S
O1350      C1363   1.262       .  A
O1350     Co1358   1.952       .  S
O1351      C1363   1.275       .  A
O1351     Co1356   2.020       .  S
O1352      C1362   1.278       .  A
O1352     Co1355   1.915       .  S
O1353      C1360   1.252       .  A
O1353     Co1358   1.976       .  S
O1354      C1361   1.266       .  A
O1354     Co1357   1.962       .  S
Co1355     O1359   1.972       .  S
Co1356     O1359   2.040       .  S
Co1357     O1359   2.098       .  S
Co1358     O1359   2.103       .  S
C1360      C2245   1.497       .  S
C1361      C2052   1.512       .  S
C1362      C3432   1.506       .  S
C1363      C2042   1.462       .  S
O1364      C1372   1.277       .  A
O1364     Co1384   2.018       .  S
O1365      C1373   1.261       .  A
O1365     Co1385   2.001       .  S
O1366      C1374   1.255       .  A
O1366     Co1386   1.861       .  S
O1367      C1375   1.263       .  A
O1367     Co1387   1.973       .  S
O1368      C1374   1.308       .  A
O1368     Co1385   2.143       .  S
O1369      C1375   1.281       .  A
O1369     Co1384   2.059       .  S
O1370      C1373   1.255       .  A
O1370     Co1387   1.971       .  S
O1371      C1372   1.270       .  A
O1371     Co1386   1.991       .  S
C1372      C4122   1.507       .  S
C1373      C2915   1.474       .  S
C1374      C3865   1.483       .  S
C1375      C2375   1.532       .  S
O1376      C1389   1.241       .  A
O1376     Co1384   1.939       .  S
O1377      C1390   1.260       .  A
O1377     Co1385   1.884       .  S
O1378      C1391   1.253       .  A
O1378     Co1386   1.989       .  S
O1379      C1392   1.281       .  A
O1379     Co1387   2.063       .  S
O1380      C1392   1.265       .  A
O1380     Co1385   1.982       .  S
O1381      C1391   1.251       .  A
O1381     Co1384   1.974       .  S
O1382      C1389   1.268       .  A
O1382     Co1387   2.055       .  S
O1383      C1390   1.303       .  A
O1383     Co1386   2.143       .  S
Co1384     O1388   2.020       .  S
Co1385     O1388   2.023       .  S
Co1386     O1388   2.020       .  S
Co1387     O1388   2.097       .  S
C1389      C2032   1.494       .  S
C1390      C2015   1.485       .  S
C1391      C2002   1.494       .  S
C1392      C2022   1.510       .  S
O1393      C1401   1.260       .  A
O1393     Co1413   1.907       .  S
O1394      C1402   1.244       .  A
O1394     Co1414   1.949       .  S
O1395      C1403   1.269       .  A
O1395     Co1415   2.043       .  S
O1396      C1404   1.275       .  A
O1396     Co1416   2.022       .  S
O1397      C1403   1.245       .  A
O1397     Co1414   1.958       .  S
O1398      C1404   1.259       .  A
O1398     Co1413   1.946       .  S
O1399      C1402   1.275       .  A
O1399     Co1416   2.077       .  S
O1400      C1401   1.294       .  A
O1400     Co1415   2.106       .  S
C1401      C3802   1.510       .  S
C1402      C2325   1.500       .  S
C1403      C3702   1.489       .  S
C1404      C1962   1.478       .  S
O1405      C1418   1.263       .  A
O1405     Co1413   2.035       .  S
O1406      C1419   1.273       .  A
O1406     Co1414   2.036       .  S
O1407      C1420   1.268       .  A
O1407     Co1415   1.894       .  S
O1408      C1421   1.250       .  A
O1408     Co1416   1.930       .  S
O1409      C1421   1.283       .  A
O1409     Co1414   2.065       .  S
O1410      C1420   1.290       .  A
O1410     Co1413   2.078       .  S
O1411      C1418   1.253       .  A
O1411     Co1416   1.984       .  S
O1412      C1419   1.269       .  A
O1412     Co1415   1.983       .  S
Co1413     O1417   2.019       .  S
Co1414     O1417   2.025       .  S
Co1415     O1417   2.056       .  S
Co1416     O1417   2.064       .  S
C1418      C1992   1.512       .  S
C1419      C1985   1.511       .  S
C1420      C1975   1.470       .  S
C1421      C2035   1.492       .  S
O1422      C1430   1.284       .  A
O1422     Co1442   2.078       .  S
O1423      C1431   1.279       .  A
O1423     Co1443   2.065       .  S
O1424      C1432   1.267       .  A
O1424     Co1444   1.998       .  S
O1425      C1433   1.252       .  A
O1425     Co1445   1.977       .  S
O1426      C1432   1.275       .  A
O1426     Co1443   2.042       .  S
O1427      C1433   1.267       .  A
O1427     Co1442   2.048       .  S
O1428      C1431   1.251       .  A
O1428     Co1445   1.944       .  S
O1429      C1430   1.264       .  A
O1429     Co1444   1.904       .  S
C1430      C1955   1.477       .  S
C1431      C2025   1.511       .  S
C1432      C1942   1.522       .  S
C1433      C1995   1.516       .  S
O1434      C1447   1.272       .  A
O1434     Co1442   1.985       .  S
O1435      C1448   1.261       .  A
O1435     Co1443   1.986       .  S
O1436      C1449   1.292       .  A
O1436     Co1444   2.082       .  S
O1437      C1450   1.278       .  A
O1437     Co1445   2.070       .  S
O1438      C1450   1.254       .  A
O1438     Co1443   1.965       .  S
O1439      C1449   1.271       .  A
O1439     Co1442   1.933       .  S
O1440      C1447   1.281       .  A
O1440     Co1445   2.055       .  S
O1441      C1448   1.278       .  A
O1441     Co1444   2.068       .  S
Co1442     O1446   2.067       .  S
Co1443     O1446   2.073       .  S
Co1444     O1446   2.054       .  S
Co1445     O1446   2.073       .  S
C1447      C1932   1.532       .  S
C1448      C3962   1.524       .  S
C1449      C4025   1.512       .  S
C1450      C2955   1.514       .  S
O1451      C1459   1.289       .  A
O1451     Co1471   2.056       .  S
O1452      C1460   1.250       .  A
O1452     Co1472   2.005       .  S
O1453      C1461   1.275       .  A
O1453     Co1473   1.978       .  S
O1454      C1462   1.281       .  A
O1454     Co1474   2.077       .  S
O1455      C1461   1.285       .  A
O1455     Co1472   2.036       .  S
O1456      C1462   1.258       .  A
O1456     Co1471   1.970       .  S
O1457      C1460   1.252       .  A
O1457     Co1474   1.984       .  S
O1458      C1459   1.279       .  A
O1458     Co1473   1.941       .  S
C1459      C3975   1.503       .  S
C1460      C1902   1.490       .  S
C1461      C3875   1.502       .  S
C1462      C2235   1.526       .  S
O1463      C1476   1.258       .  A
O1463     Co1471   2.000       .  S
O1464      C1477   1.270       .  A
O1464     Co1472   1.972       .  S
O1465      C1478   1.254       .  A
O1465     Co1473   2.046       .  S
O1466      C1479   1.305       .  A
O1466     Co1474   2.120       .  S
O1467      C1479   1.280       .  A
O1467     Co1472   1.891       .  S
O1468      C1478   1.252       .  A
O1468     Co1471   1.977       .  S
O1469      C1476   1.246       .  A
O1469     Co1474   1.955       .  S
O1470      C1477   1.273       .  A
O1470     Co1473   2.008       .  S
Co1471     O1475   2.107       .  S
Co1472     O1475   1.979       .  S
Co1473     O1475   2.015       .  S
Co1474     O1475   2.128       .  S
C1476      C1925   1.482       .  S
C1477      C2012   1.497       .  S
C1478      C1945   1.522       .  S
C1479      C1915   1.517       .  S
O1480      C1488   1.239       .  A
O1480     Co1500   1.984       .  S
O1481      C1489   1.276       .  A
O1481     Co1501   2.024       .  S
O1482      C1490   1.247       .  A
O1482     Co1502   1.867       .  S
O1483      C1491   1.264       .  A
O1483     Co1503   2.001       .  S
O1484      C1490   1.303       .  A
O1484     Co1501   2.131       .  S
O1485      C1491   1.257       .  A
O1485     Co1500   1.966       .  S
O1486      C1489   1.265       .  A
O1486     Co1503   1.977       .  S
O1487      C1488   1.239       .  A
O1487     Co1502   2.030       .  S
C1488      C1952   1.477       .  S
C1489      C1895   1.505       .  S
C1490      C1972   1.484       .  S
C1491      C1922   1.465       .  S
O1492      C1505   1.258       .  A
O1492     Co1500   1.982       .  S
O1493      C1506   1.269       .  A
O1493     Co1501   1.904       .  S
O1494      C1507   1.268       .  A
O1494     Co1502   2.014       .  S
O1495      C1508   1.255       .  A
O1495     Co1503   2.010       .  S
O1496      C1508   1.253       .  A
O1496     Co1501   2.007       .  S
O1497      C1507   1.263       .  A
O1497     Co1500   1.983       .  S
O1498      C1505   1.273       .  A
O1498     Co1503   2.018       .  S
O1499      C1506   1.299       .  A
O1499     Co1502   2.084       .  S
Co1500     O1504   2.100       .  S
Co1501     O1504   2.062       .  S
Co1502     O1504   2.015       .  S
Co1503     O1504   2.099       .  S
C1505      C2225   1.506       .  S
C1506      C3815   1.491       .  S
C1507      C4032   1.484       .  S
C1508      C2805   1.497       .  S
O1509      C1517   1.309       .  A
O1509     Co1529   2.138       .  S
O1510      C1518   1.281       .  A
O1510     Co1530   2.054       .  S
O1511      C1519   1.270       .  A
O1511     Co1531   1.982       .  S
O1512      C1520   1.265       .  A
O1512     Co1532   2.011       .  S
O1513      C1519   1.267       .  A
O1513     Co1530   1.984       .  S
O1514      C1520   1.257       .  A
O1514     Co1529   1.995       .  S
O1515      C1518   1.271       .  A
O1515     Co1532   1.986       .  S
O1516      C1517   1.258       .  A
O1516     Co1531   1.877       .  S
C1517      C4132   1.510       .  S
C1518      C2845   1.528       .  S
C1519      C3715   1.490       .  S
C1520      C1882   1.515       .  S
O1521      C1534   1.269       .  A
O1521     Co1529   1.988       .  S
O1522      C1535   1.260       .  A
O1522     Co1530   2.000       .  S
O1523      C1536   1.290       .  A
O1523     Co1531   2.106       .  S
O1524      C1537   1.273       .  A
O1524     Co1532   2.074       .  S
O1525      C1537   1.245       .  A
O1525     Co1530   1.940       .  S
O1526      C1536   1.259       .  A
O1526     Co1529   1.884       .  S
O1527      C1534   1.285       .  A
O1527     Co1532   2.061       .  S
O1528      C1535   1.258       .  A
O1528     Co1531   1.994       .  S
Co1529     O1533   2.020       .  S
Co1530     O1533   2.012       .  S
Co1531     O1533   2.021       .  S
Co1532     O1533   2.083       .  S
C1534      C1912   1.511       .  S
C1535      C1982   1.501       .  S
C1536      C2005   1.473       .  S
C1537      C1892   1.507       .  S
O1538      C1546   1.236       .  A
O1538     Co1558   1.938       .  S
O1539      C1547   1.264       .  A
O1539     Co1559   1.988       .  S
O1540      C1548   1.291       .  A
O1540     Co1560   2.098       .  S
O1541      C1549   1.280       .  A
O1541     Co1561   2.075       .  S
O1542      C1548   1.264       .  A
O1542     Co1559   1.909       .  S
O1543      C1549   1.246       .  A
O1543     Co1558   1.944       .  S
O1544      C1547   1.266       .  A
O1544     Co1561   2.002       .  S
O1545      C1546   1.253       .  A
O1545     Co1560   2.008       .  S
C1546      C1852   1.458       .  S
C1547      C1872   1.490       .  S
C1548      C1842   1.491       .  S
C1549      C1862   1.510       .  S
O1550      C1563   1.273       .  A
O1550     Co1558   2.029       .  S
O1551      C1564   1.296       .  A
O1551     Co1559   2.109       .  S
O1552      C1565   1.273       .  A
O1552     Co1560   1.993       .  S
O1553      C1566   1.257       .  A
O1553     Co1561   1.976       .  S
O1554      C1566   1.261       .  A
O1554     Co1559   1.996       .  S
O1555      C1565   1.286       .  A
O1555     Co1558   2.066       .  S
O1556      C1563   1.251       .  A
O1556     Co1561   1.941       .  S
O1557      C1564   1.264       .  A
O1557     Co1560   1.914       .  S
Co1558     O1562   2.040       .  S
Co1559     O1562   2.037       .  S
Co1560     O1562   2.055       .  S
Co1561     O1562   2.078       .  S
C1563      C1965   1.478       .  S
C1564      C3545   1.508       .  S
C1565      C3782   1.521       .  S
C1566      C2105   1.499       .  S
O1567      C1575   1.294       .  A
O1567     Co1587   2.094       .  S
O1568      C1576   1.277       .  A
O1568     Co1588   2.037       .  S
O1569      C1577   1.283       .  A
O1569     Co1589   2.019       .  S
O1570      C1578   1.254       .  A
O1570     Co1590   1.983       .  S
O1571      C1577   1.273       .  A
O1571     Co1588   2.023       .  S
O1572      C1578   1.276       .  A
O1572     Co1587   2.056       .  S
O1573      C1576   1.256       .  A
O1573     Co1590   1.951       .  S
O1574      C1575   1.273       .  A
O1574     Co1589   1.917       .  S
C1575      C4042   1.507       .  S
C1576      C3115   1.496       .  S
C1577      C1825   1.520       .  S
C1578      C1935   1.515       .  S
O1579      C1592   1.268       .  A
O1579     Co1587   1.996       .  S
O1580      C1593   1.256       .  A
O1580     Co1588   1.971       .  S
O1581      C1594   1.298       .  A
O1581     Co1589   2.120       .  S
O1582      C1595   1.272       .  A
O1582     Co1590   2.061       .  S
O1583      C1595   1.249       .  A
O1583     Co1588   1.947       .  S
O1584      C1594   1.268       .  A
O1584     Co1587   1.917       .  S
O1585      C1592   1.281       .  A
O1585     Co1590   2.063       .  S
O1586      C1593   1.264       .  A
O1586     Co1589   2.025       .  S
Co1587     O1591   2.032       .  S
Co1588     O1591   2.035       .  S
Co1589     O1591   2.056       .  S
Co1590     O1591   2.097       .  S
C1592      C1865   1.521       .  S
C1593      C1805   1.488       .  S
C1594      C1812   1.516       .  S
C1595      C1832   1.501       .  S
O1596      C1604   1.243       .  A
O1596     Co1616   1.931       .  S
O1597      C1605   1.281       .  A
O1597     Co1617   2.022       .  S
O1598      C1606   1.300       .  A
O1598     Co1618   2.108       .  S
O1599      C1607   1.264       .  A
O1599     Co1619   2.013       .  S
O1600      C1606   1.250       .  A
O1600     Co1617   1.936       .  S
O1601      C1607   1.251       .  A
O1601     Co1616   1.960       .  S
O1602      C1605   1.269       .  A
O1602     Co1619   1.976       .  S
O1603      C1604   1.288       .  A
O1603     Co1618   2.084       .  S
C1604      C1782   1.499       .  S
C1605      C1835   1.500       .  S
C1606      C1792   1.497       .  S
C1607      C1875   1.480       .  S
O1608      C1621   1.265       .  A
O1608     Co1616   2.003       .  S
O1609      C1622   1.272       .  A
O1609     Co1617   1.902       .  S
O1610      C1623   1.270       .  A
O1610     Co1618   1.910       .  S
O1611      C1624   1.253       .  A
O1611     Co1619   2.019       .  S
O1612      C1624   1.250       .  A
O1612     Co1617   2.000       .  S
O1613      C1623   1.304       .  A
O1613     Co1616   2.113       .  S
O1614      C1621   1.267       .  A
O1614     Co1619   1.994       .  S
O1615      C1622   1.297       .  A
O1615     Co1618   2.089       .  S
Co1616     O1620   2.111       .  S
Co1617     O1620   1.931       .  S
Co1618     O1620   2.022       .  S
Co1619     O1620   2.103       .  S
C1621      C2175   1.512       .  S
C1622      C3842   1.499       .  S
C1623      C4062   1.513       .  S
C1624      C3215   1.506       .  S
O1625      C1633   1.266       .  A
O1625     Co1645   1.979       .  S
O1626      C1634   1.269       .  A
O1626     Co1646   2.021       .  S
O1627      C1635   1.266       .  A
O1627     Co1647   1.996       .  S
O1628      C1636   1.248       .  A
O1628     Co1648   1.960       .  S
O1629      C1635   1.258       .  A
O1629     Co1646   1.987       .  S
O1630      C1636   1.253       .  A
O1630     Co1645   1.984       .  S
O1631      C1634   1.256       .  A
O1631     Co1648   1.956       .  S
O1632      C1633   1.285       .  A
O1632     Co1647   2.048       .  S
C1633      C4055   1.495       .  S
C1634      C3025   1.474       .  S
C1635      C3795   1.508       .  S
C1636      C2072   1.463       .  S
O1637      C1650   1.261       .  A
O1637     Co1645   1.947       .  S
O1638      C1651   1.285       .  A
O1638     Co1646   2.017       .  S
O1639      C1652   1.249       .  A
O1639     Co1647   2.030       .  S
O1640      C1653   1.275       .  A
O1640     Co1648   2.055       .  S
O1641      C1653   1.257       .  A
O1641     Co1646   1.939       .  S
O1642      C1652   1.241       .  A
O1642     Co1645   1.993       .  S
O1643      C1650   1.280       .  A
O1643     Co1648   2.034       .  S
O1644      C1651   1.279       .  A
O1644     Co1647   1.923       .  S
Co1645     O1649   2.091       .  S
Co1646     O1649   2.067       .  S
Co1647     O1649   1.970       .  S
Co1648     O1649   2.081       .  S
C1650      C1765   1.466       .  S
C1651      C1855   1.461       .  S
C1652      C1815   1.506       .  S
C1653      C1772   1.502       .  S
O1654      C1662   1.300       .  A
O1654     Co1674   2.141       .  S
O1655      C1663   1.254       .  A
O1655     Co1675   1.984       .  S
O1656      C1664   1.266       .  A
O1656     Co1676   2.014       .  S
O1657      C1665   1.247       .  A
O1657     Co1677   1.944       .  S
O1658      C1664   1.260       .  A
O1658     Co1675   1.990       .  S
O1659      C1665   1.273       .  A
O1659     Co1674   2.035       .  S
O1660      C1663   1.249       .  A
O1660     Co1677   1.962       .  S
O1661      C1662   1.254       .  A
O1661     Co1676   1.883       .  S
C1662      C3855   1.498       .  S
C1663      C2045   1.457       .  S
C1664      C1742   1.505       .  S
C1665      C1905   1.502       .  S
O1666      C1679   1.270       .  A
O1666     Co1674   2.002       .  S
O1667      C1680   1.252       .  A
O1667     Co1675   1.947       .  S
O1668      C1681   1.318       .  A
O1668     Co1676   2.144       .  S
O1669      C1682   1.278       .  A
O1669     Co1677   2.048       .  S
O1670      C1682   1.254       .  A
O1670     Co1675   1.931       .  S
O1671      C1681   1.267       .  A
O1671     Co1674   1.872       .  S
O1672      C1679   1.273       .  A
O1672     Co1677   2.035       .  S
O1673      C1680   1.285       .  A
O1673     Co1676   2.035       .  S
Co1674     O1678   2.030       .  S
Co1675     O1678   2.049       .  S
Co1676     O1678   2.004       .  S
Co1677     O1678   2.055       .  S
C1679      C1752   1.527       .  S
C1680      C1802   1.486       .  S
C1681      C1795   1.490       .  S
C1682      C1762   1.466       .  S
O1683      C1691   1.257       .  A
O1683     Co1703   1.895       .  S
O1684      C1692   1.247       .  A
O1684     Co1704   1.946       .  S
O1685      C1693   1.265       .  A
O1685     Co1705   2.005       .  S
O1686      C1694   1.286       .  A
O1686     Co1706   2.076       .  S
O1687      C1693   1.250       .  A
O1687     Co1704   1.966       .  S
O1688      C1694   1.258       .  A
O1688     Co1703   1.966       .  S
O1689      C1692   1.267       .  A
O1689     Co1706   2.046       .  S
O1690      C1691   1.301       .  A
O1690     Co1705   2.143       .  S
C1691      C1785   1.502       .  S
C1692      C1775   1.486       .  S
C1693      C1845   1.493       .  S
C1694      C1755   1.514       .  S
O1695      C1708   1.263       .  A
O1695     Co1703   2.022       .  S
O1696      C1709   1.276       .  A
O1696     Co1704   2.034       .  S
O1697      C1710   1.270       .  A
O1697     Co1705   1.904       .  S
O1698      C1711   1.262       .  A
O1698     Co1706   1.965       .  S
O1699      C1711   1.281       .  A
O1699     Co1704   2.049       .  S
O1700      C1710   1.303       .  A
O1700     Co1703   2.117       .  S
O1701      C1708   1.255       .  A
O1701     Co1706   1.986       .  S
O1702      C1709   1.281       .  A
O1702     Co1705   2.025       .  S
Co1703     O1707   2.008       .  S
Co1704     O1707   2.017       .  S
Co1705     O1707   2.035       .  S
Co1706     O1707   2.077       .  S
C1708      C1885   1.505       .  S
C1709      C3555   1.521       .  S
C1710      C4075   1.493       .  S
C1711      C3005   1.503       .  S
O1712      C1720   1.274       .  A
O1712     Co1732   2.010       .  S
O1713      C1721   1.267       .  A
O1713     Co1733   1.980       .  S
O1714      C1722   1.307       .  A
O1714     Co1734   2.164       .  S
O1715      C1723   1.275       .  A
O1715     Co1735   2.029       .  S
O1716      C1722   1.271       .  A
O1716     Co1733   1.924       .  S
O1717      C1723   1.272       .  A
O1717     Co1732   1.993       .  S
O1718      C1721   1.280       .  A
O1718     Co1735   2.034   1_565  S
O1719      C1720   1.265       .  A
O1719     Co1734   1.992   1_545  S
C1720      C3075   1.503       .  S
C1721      C2055   1.506       .  S
C1722      C2635   1.546       .  S
C1723      C1745   1.510       .  S
O1724      C1737   1.280       .  A
O1724     Co1732   2.050       .  S
O1725      C1738   1.288       .  A
O1725     Co1733   2.090       .  S
O1726      C1739   1.285       .  A
O1726     Co1734   2.026   1_545  S
O1727      C1740   1.265       .  A
O1727     Co1735   1.994   1_565  S
O1728      C1740   1.284       .  A
O1728     Co1733   2.058       .  S
O1729      C1739   1.278       .  A
O1729     Co1732   2.004       .  S
O1730      C1737   1.269       .  A
O1730     Co1735   1.990       .  S
O1731      C1738   1.276       .  A
O1731     Co1734   1.921       .  S
Co1732     O1736   2.028       .  S
Co1733     O1736   2.006   1_565  S
Co1734     O1736   2.025   1_565  S
Co1735     O1736   2.039       .  S
C1737      C1822   1.513       .  S
C1738      C2775   1.505       .  S
C1739      C3142   1.515       .  S
C1740      C2155   1.508       .  S
C1741      C1742   1.414       .  A
C1741      C1746   1.412       .  A
C1741     Br1748   1.934       .  S
C1742      C1743   1.420       .  A
C1743      C1744   1.417       .  A
C1743     Br1750   1.936       .  S
C1744      C1745   1.421       .  A
C1744     Br1749   1.934       .  S
C1745      C1746   1.418       .  A
C1746     Br1747   1.923       .  S
C1751      C1752   1.420       .  A
C1751      C1756   1.420       .  A
C1751     Br1758   1.932       .  S
C1752      C1753   1.429       .  A
C1753      C1754   1.425       .  A
C1753     Br1760   1.929       .  S
C1754      C1755   1.413       .  A
C1754     Br1759   1.932       .  S
C1755      C1756   1.418       .  A
C1756     Br1757   1.931       .  S
C1761      C1762   1.401       .  A
C1761      C1766   1.400       .  A
C1761     Br1768   1.918       .  S
C1762      C1763   1.416       .  A
C1763      C1764   1.401       .  A
C1763     Br1770   1.934       .  S
C1764      C1765   1.409       .  A
C1764     Br1769   1.936       .  S
C1765      C1766   1.402       .  A
C1766     Br1767   1.908       .  S
C1771      C1772   1.418       .  A
C1771      C1776   1.416       .  A
C1771     Br1778   1.929       .  S
C1772      C1773   1.415       .  A
C1773      C1774   1.407       .  A
C1773     Br1780   1.936       .  S
C1774      C1775   1.412       .  A
C1774     Br1779   1.929       .  S
C1775      C1776   1.407       .  A
C1776     Br1777   1.924       .  S
C1781      C1782   1.418       .  A
C1781      C1786   1.414       .  A
C1781     Br1788   1.930       .  S
C1782      C1783   1.424       .  A
C1783      C1784   1.405       .  A
C1783     Br1790   1.934       .  S
C1784      C1785   1.402       .  A
C1784     Br1789   1.923       .  S
C1785      C1786   1.417       .  A
C1786     Br1787   1.935       .  S
C1791      C1792   1.418       .  A
C1791      C1796   1.414       .  A
C1791     Br1798   1.929       .  S
C1792      C1793   1.414       .  A
C1793      C1794   1.407       .  A
C1793     Br1800   1.922       .  S
C1794      C1795   1.416       .  A
C1794     Br1799   1.943       .  S
C1795      C1796   1.410       .  A
C1796     Br1797   1.925       .  S
C1801      C1802   1.410       .  A
C1801      C1806   1.411       .  A
C1801     Br1808   1.930       .  S
C1802      C1803   1.419       .  A
C1803      C1804   1.409       .  A
C1803     Br1810   1.930       .  S
C1804      C1805   1.402       .  A
C1804     Br1809   1.925       .  S
C1805      C1806   1.414       .  A
C1806     Br1807   1.923       .  S
C1811      C1812   1.419       .  A
C1811      C1816   1.422       .  A
C1811     Br1818   1.930       .  S
C1812      C1813   1.417       .  A
C1813      C1814   1.417       .  A
C1813     Br1820   1.928       .  S
C1814      C1815   1.415       .  A
C1814     Br1819   1.924       .  S
C1815      C1816   1.410       .  A
C1816     Br1817   1.925       .  S
C1821      C1822   1.411       .  A
C1821      C1826   1.420       .  A
C1821     Br1828   1.924       .  S
C1822      C1823   1.416       .  A
C1823      C1824   1.421       .  A
C1823     Br1830   1.929       .  S
C1824      C1825   1.418       .  A
C1824     Br1829   1.923       .  S
C1825      C1826   1.420       .  A
C1826     Br1827   1.916       .  S
C1831      C1832   1.409       .  A
C1831      C1836   1.419       .  A
C1831     Br1838   1.930       .  S
C1832      C1833   1.415       .  A
C1833      C1834   1.405       .  A
C1833     Br1840   1.924       .  S
C1834      C1835   1.413       .  A
C1834     Br1839   1.936       .  S
C1835      C1836   1.425       .  A
C1836     Br1837   1.931       .  S
C1841      C1842   1.420       .  A
C1841      C1846   1.411       .  A
C1841     Br1848   1.934       .  S
C1842      C1843   1.417       .  A
C1843      C1844   1.405       .  A
C1843     Br1850   1.940       .  S
C1844      C1845   1.417       .  A
C1844     Br1849   1.933       .  S
C1845      C1846   1.412       .  A
C1846     Br1847   1.934       .  S
C1851      C1852   1.402       .  A
C1851      C1856   1.396       .  A
C1851     Br1858   1.939       .  S
C1852      C1853   1.411       .  A
C1853      C1854   1.400       .  A
C1853     Br1860   1.918       .  S
C1854      C1855   1.404       .  A
C1854     Br1859   1.933       .  S
C1855      C1856   1.420       .  A
C1856     Br1857   1.935       .  S
C1861      C1862   1.409       .  A
C1861      C1866   1.423       .  A
C1861     Br1868   1.922       .  S
C1862      C1863   1.419       .  A
C1863      C1864   1.418       .  A
C1863     Br1870   1.935       .  S
C1864      C1865   1.416       .  A
C1864     Br1869   1.925       .  S
C1865      C1866   1.417       .  A
C1866     Br1867   1.906       .  S
C1871      C1872   1.413       .  A
C1871      C1876   1.409       .  A
C1871     Br1878   1.933       .  S
C1872      C1873   1.421       .  A
C1873      C1874   1.409       .  A
C1873     Br1880   1.931       .  S
C1874      C1875   1.407       .  A
C1874     Br1879   1.934       .  S
C1875      C1876   1.411       .  A
C1876     Br1877   1.929       .  S
C1881      C1882   1.421       .  A
C1881      C1886   1.416   1_455  A
C1881     Br1888   1.938       .  S
C1882      C1883   1.428       .  A
C1883      C1884   1.417   1_455  A
C1883     Br1890   1.934       .  S
C1884      C1885   1.411       .  A
C1884     Br1889   1.932       .  S
C1885      C1886   1.415       .  A
C1886     Br1887   1.929       .  S
C1891      C1892   1.420       .  A
C1891      C1896   1.409       .  A
C1891     Br1898   1.933       .  S
C1892      C1893   1.410       .  A
C1893      C1894   1.421       .  A
C1893     Br1900   1.928       .  S
C1894      C1895   1.423       .  A
C1894     Br1899   1.930       .  S
C1895      C1896   1.413       .  A
C1896     Br1897   1.932       .  S
C1901      C1902   1.404       .  A
C1901      C1906   1.414   1_455  A
C1901     Br1908   1.933       .  S
C1902      C1903   1.416       .  A
C1903      C1904   1.408   1_455  A
C1903     Br1910   1.927       .  S
C1904      C1905   1.411       .  A
C1904     Br1909   1.934       .  S
C1905      C1906   1.433       .  A
C1906     Br1907   1.937       .  S
C1911      C1912   1.407       .  A
C1911      C1916   1.417       .  A
C1911     Br1918   1.914       .  S
C1912      C1913   1.416       .  A
C1913      C1914   1.416       .  A
C1913     Br1920   1.915       .  S
C1914      C1915   1.420       .  A
C1914     Br1919   1.940       .  S
C1915      C1916   1.427       .  A
C1916     Br1917   1.935       .  S
C1921      C1922   1.405       .  A
C1921      C1926   1.406       .  A
C1921     Br1928   1.932       .  S
C1922      C1923   1.404       .  A
C1923      C1924   1.404       .  A
C1923     Br1930   1.932       .  S
C1924      C1925   1.416       .  A
C1924     Br1929   1.931       .  S
C1925      C1926   1.419       .  A
C1926     Br1927   1.935       .  S
C1931      C1932   1.420       .  A
C1931      C1936   1.426       .  A
C1931     Br1938   1.931       .  S
C1932      C1933   1.430       .  A
C1933      C1934   1.424       .  A
C1933     Br1940   1.930       .  S
C1934      C1935   1.410       .  A
C1934     Br1939   1.932       .  S
C1935      C1936   1.418       .  A
C1936     Br1937   1.930       .  S
C1941      C1942   1.417       .  A
C1941      C1946   1.427       .  A
C1941     Br1948   1.934       .  S
C1942      C1943   1.422       .  A
C1943      C1944   1.405       .  A
C1943     Br1950   1.913       .  S
C1944      C1945   1.412       .  A
C1944     Br1949   1.936       .  S
C1945      C1946   1.432       .  A
C1946     Br1947   1.932       .  S
C1951      C1952   1.411       .  A
C1951      C1956   1.403       .  A
C1951     Br1958   1.921       .  S
C1952      C1953   1.407       .  A
C1953      C1954   1.406       .  A
C1953     Br1960   1.917       .  S
C1954      C1955   1.407       .  A
C1954     Br1959   1.920       .  S
C1955      C1956   1.402       .  A
C1956     Br1957   1.918       .  S
C1961      C1962   1.413       .  A
C1961      C1966   1.405       .  A
C1961     Br1968   1.934       .  S
C1962      C1963   1.415       .  A
C1963      C1964   1.405       .  A
C1963     Br1970   1.936       .  S
C1964      C1965   1.411       .  A
C1964     Br1969   1.926       .  S
C1965      C1966   1.410       .  A
C1966     Br1967   1.927       .  S
C1971      C1972   1.426       .  A
C1971      C1976   1.398       .  A
C1971     Br1978   1.945       .  S
C1972      C1973   1.415       .  A
C1973      C1974   1.411       .  A
C1973     Br1980   1.923       .  S
C1974      C1975   1.404       .  A
C1974     Br1979   1.929       .  S
C1975      C1976   1.400       .  A
C1976     Br1977   1.921       .  S
C1981      C1982   1.417       .  A
C1981      C1986   1.411       .  A
C1981     Br1988   1.930       .  S
C1982      C1983   1.410       .  A
C1983      C1984   1.401       .  A
C1983     Br1990   1.928       .  S
C1984      C1985   1.411       .  A
C1984     Br1989   1.918       .  S
C1985      C1986   1.418       .  A
C1986     Br1987   1.933       .  S
C1991      C1992   1.417       .  A
C1991      C1996   1.412       .  A
C1991     Br1998   1.936       .  S
C1992      C1993   1.419       .  A
C1993      C1994   1.425       .  A
C1993     Br2000   1.926       .  S
C1994      C1995   1.417       .  A
C1994     Br1999   1.922       .  S
C1995      C1996   1.420       .  A
C1996     Br1997   1.940       .  S
C2001      C2002   1.425       .  A
C2001      C2006   1.402       .  A
C2001     Br2008   1.931       .  S
C2002      C2003   1.422       .  A
C2003      C2004   1.407       .  A
C2003     Br2010   1.933       .  S
C2004      C2005   1.408       .  A
C2004     Br2009   1.931       .  S
C2005      C2006   1.405       .  A
C2006     Br2007   1.938       .  S
C2011      C2012   1.425       .  A
C2011      C2016   1.409       .  A
C2011     Br2018   1.939       .  S
C2012      C2013   1.419       .  A
C2013      C2014   1.410       .  A
C2013     Br2020   1.935       .  S
C2014      C2015   1.405       .  A
C2014     Br2019   1.919       .  S
C2015      C2016   1.411       .  A
C2016     Br2017   1.936       .  S
C2021      C2022   1.411       .  A
C2021      C2026   1.415       .  A
C2021     Br2028   1.930       .  S
C2022      C2023   1.420       .  A
C2023      C2024   1.424       .  A
C2023     Br2030   1.922       .  S
C2024      C2025   1.414       .  A
C2024     Br2029   1.929       .  S
C2025      C2026   1.421       .  A
C2026     Br2027   1.933       .  S
C2031      C2032   1.409       .  A
C2031      C2036   1.416       .  A
C2031     Br2038   1.928       .  S
C2032      C2033   1.422       .  A
C2033      C2034   1.405       .  A
C2033     Br2040   1.937       .  S
C2034      C2035   1.400       .  A
C2034     Br2039   1.906       .  S
C2035      C2036   1.419       .  A
C2036     Br2037   1.927       .  S
C2041      C2042   1.407       .  A
C2041      C2046   1.404   1_565  A
C2041     Br2048   1.925       .  S
C2042      C2043   1.409       .  A
C2043      C2044   1.398   1_565  A
C2043     Br2050   1.928       .  S
C2044      C2045   1.406       .  A
C2044     Br2049   1.935       .  S
C2045      C2046   1.408       .  A
C2046     Br2047   1.931       .  S
C2051      C2052   1.424       .  A
C2051      C2056   1.426       .  A
C2051     Br2058   1.926       .  S
C2052      C2053   1.421       .  A
C2053      C2054   1.400       .  A
C2053     Br2060   1.934       .  S
C2054      C2055   1.406       .  A
C2054     Br2059   1.922       .  S
C2055      C2056   1.417       .  A
C2056     Br2057   1.928       .  S
C2061      C2062   1.399       .  A
C2061      C2066   1.404       .  A
C2061     Br2068   1.918       .  S
C2062      C2063   1.421       .  A
C2063      C2064   1.422       .  A
C2063     Br2070   1.928       .  S
C2064      C2065   1.414       .  A
C2064     Br2069   1.925       .  S
C2065      C2066   1.415       .  A
C2066     Br2067   1.919       .  S
C2071      C2072   1.408       .  A
C2071      C2076   1.402   1_545  A
C2071     Br2078   1.932       .  S
C2072      C2073   1.407       .  A
C2073      C2074   1.400   1_545  A
C2073     Br2080   1.934       .  S
C2074      C2075   1.412       .  A
C2074     Br2079   1.931       .  S
C2075      C2076   1.412       .  A
C2076     Br2077   1.932       .  S
C2081      C2082   1.415       .  A
C2081      C2086   1.411       .  A
C2081     Br2088   1.919       .  S
C2082      C2083   1.412       .  A
C2083      C2084   1.408       .  A
C2083     Br2090   1.938       .  S
C2084      C2085   1.427       .  A
C2084     Br2089   1.942       .  S
C2085      C2086   1.410       .  A
C2086     Br2087   1.932       .  S
C2091      C2092   1.417       .  A
C2091      C2096   1.403       .  A
C2091     Br2098   1.937       .  S
C2092      C2093   1.413       .  A
C2093      C2094   1.419       .  A
C2093     Br2100   1.927       .  S
C2094      C2095   1.414       .  A
C2094     Br2099   1.928       .  S
C2095      C2096   1.408       .  A
C2096     Br2097   1.937       .  S
C2101      C2102   1.424       .  A
C2101      C2106   1.409       .  A
C2101     Br2108   1.938       .  S
C2102      C2103   1.420       .  A
C2103      C2104   1.411       .  A
C2103     Br2110   1.933       .  S
C2104      C2105   1.418       .  A
C2104     Br2109   1.937       .  S
C2105      C2106   1.414       .  A
C2106     Br2107   1.939       .  S
C2111      C2112   1.431       .  A
C2111      C2116   1.407       .  A
C2111     Br2118   1.915       .  S
C2112      C2113   1.421       .  A
C2113      C2114   1.408       .  A
C2113     Br2120   1.945       .  S
C2114      C2115   1.419       .  A
C2114     Br2119   1.929       .  S
C2115      C2116   1.400       .  A
C2116     Br2117   1.946       .  S
C2121      C2122   1.418       .  A
C2121      C2126   1.403       .  A
C2121     Br2128   1.935       .  S
C2122      C2123   1.409       .  A
C2123      C2124   1.391       .  A
C2123     Br2130   1.926       .  S
C2124      C2125   1.395       .  A
C2124     Br2129   1.901       .  S
C2125      C2126   1.406       .  A
C2126     Br2127   1.927       .  S
C2131      C2132   1.418       .  A
C2131      C2136   1.417       .  A
C2131     Br2138   1.924       .  S
C2132      C2133   1.397       .  A
C2133      C2134   1.407       .  A
C2133     Br2140   1.922       .  S
C2134      C2135   1.429       .  A
C2134     Br2139   1.936       .  S
C2135      C2136   1.421       .  A
C2136     Br2137   1.936       .  S
C2141      C2142   1.418       .  A
C2141      C2146   1.409       .  A
C2141     Br2148   1.922       .  S
C2142      C2143   1.406       .  A
C2143      C2144   1.405       .  A
C2143     Br2150   1.937       .  S
C2144      C2145   1.418       .  A
C2144     Br2149   1.910       .  S
C2145      C2146   1.408       .  A
C2146     Br2147   1.931       .  S
C2151      C2152   1.421       .  A
C2151      C2156   1.413       .  A
C2151     Br2158   1.908       .  S
C2152      C2153   1.407       .  A
C2153      C2154   1.427       .  A
C2153     Br2160   1.922       .  S
C2154      C2155   1.418       .  A
C2154     Br2159   1.913       .  S
C2155      C2156   1.405       .  A
C2156     Br2157   1.938       .  S
C2161      C2162   1.416       .  A
C2161      C2166   1.438       .  A
C2161     Br2168   1.927       .  S
C2162      C2163   1.419       .  A
C2163      C2164   1.407       .  A
C2163     Br2170   1.936       .  S
C2164      C2165   1.422       .  A
C2164     Br2169   1.940       .  S
C2165      C2166   1.439       .  A
C2166     Br2167   1.931       .  S
C2171      C2172   1.422       .  A
C2171      C2176   1.417       .  A
C2171     Br2178   1.940       .  S
C2172      C2173   1.416       .  A
C2173      C2174   1.412       .  A
C2173     Br2180   1.943       .  S
C2174      C2175   1.428       .  A
C2174     Br2179   1.941       .  S
C2175      C2176   1.421       .  A
C2176     Br2177   1.938       .  S
C2181      C2182   1.412       .  A
C2181      C2186   1.406       .  A
C2181     Br2188   1.930       .  S
C2182      C2183   1.416       .  A
C2183      C2184   1.407       .  A
C2183     Br2190   1.936       .  S
C2184      C2185   1.414       .  A
C2184     Br2189   1.937       .  S
C2185      C2186   1.407       .  A
C2186     Br2187   1.927       .  S
C2191      C2192   1.418       .  A
C2191      C2196   1.418       .  A
C2191     Br2198   1.932       .  S
C2192      C2193   1.411       .  A
C2193      C2194   1.408       .  A
C2193     Br2200   1.936       .  S
C2194      C2195   1.428       .  A
C2194     Br2199   1.944       .  S
C2195      C2196   1.415       .  A
C2196     Br2197   1.932       .  S
C2201      C2202   1.407       .  A
C2201      C2206   1.396       .  A
C2201     Br2208   1.940       .  S
C2202      C2203   1.415       .  A
C2203      C2204   1.418       .  A
C2203     Br2210   1.930       .  S
C2204      C2205   1.415       .  A
C2204     Br2209   1.928       .  S
C2205      C2206   1.414       .  A
C2206     Br2207   1.918       .  S
C2211      C2212   1.413       .  A
C2211      C2216   1.404       .  A
C2211     Br2218   1.919       .  S
C2212      C2213   1.417       .  A
C2213      C2214   1.423       .  A
C2213     Br2220   1.923       .  S
C2214      C2215   1.414       .  A
C2214     Br2219   1.924       .  S
C2215      C2216   1.413       .  A
C2216     Br2217   1.939       .  S
C2221      C2222   1.411       .  A
C2221      C2226   1.410   1_565  A
C2221     Br2228   1.942       .  S
C2222      C2223   1.420       .  A
C2223      C2224   1.416   1_565  A
C2223     Br2230   1.934       .  S
C2224      C2225   1.415       .  A
C2224     Br2229   1.933       .  S
C2225      C2226   1.429       .  A
C2226     Br2227   1.937       .  S
C2231      C2232   1.422       .  A
C2231      C2236   1.420   1_565  A
C2231     Br2238   1.929       .  S
C2232      C2233   1.428       .  A
C2233      C2234   1.431   1_565  A
C2233     Br2240   1.930       .  S
C2234      C2235   1.416       .  A
C2234     Br2239   1.929       .  S
C2235      C2236   1.421       .  A
C2236     Br2237   1.934       .  S
C2241      C2242   1.410       .  A
C2241      C2246   1.407   1_455  A
C2241     Br2248   1.919       .  S
C2242      C2243   1.413       .  A
C2243      C2244   1.419   1_455  A
C2243     Br2250   1.928       .  S
C2244      C2245   1.417       .  A
C2244     Br2249   1.929       .  S
C2245      C2246   1.411       .  A
C2246     Br2247   1.924       .  S
C2251      C2252   1.405       .  A
C2251      C2256   1.410       .  A
C2251     Br2258   1.922       .  S
C2252      C2253   1.407       .  A
C2253      C2254   1.411       .  A
C2253     Br2260   1.929       .  S
C2254      C2255   1.418       .  A
C2254     Br2259   1.922       .  S
C2255      C2256   1.409       .  A
C2256     Br2257   1.916       .  S
C2261      C2262   1.406       .  A
C2261      C2266   1.407   1_655  A
C2261     Br2268   1.930       .  S
C2262      C2263   1.398       .  A
C2263      C2264   1.396   1_655  A
C2263     Br2270   1.931       .  S
C2264      C2265   1.418       .  A
C2264     Br2269   1.927       .  S
C2265      C2266   1.415       .  A
C2266     Br2267   1.932       .  S
C2271      C2272   1.430       .  A
C2271      C2276   1.412       .  A
C2271     Br2278   1.935       .  S
C2272      C2273   1.411       .  A
C2273      C2274   1.415       .  A
C2273     Br2280   1.932       .  S
C2274      C2275   1.420       .  A
C2274     Br2279   1.932       .  S
C2275      C2276   1.404       .  A
C2276     Br2277   1.935       .  S
C2281      C2282   1.407       .  A
C2281      C2286   1.408       .  A
C2281     Br2288   1.927       .  S
C2282      C2283   1.412       .  A
C2283      C2284   1.421       .  A
C2283     Br2290   1.926       .  S
C2284      C2285   1.418       .  A
C2284     Br2289   1.929       .  S
C2285      C2286   1.417       .  A
C2286     Br2287   1.936       .  S
C2291      C2292   1.418       .  A
C2291      C2296   1.409       .  A
C2291     Br2298   1.934       .  S
C2292      C2293   1.421       .  A
C2293      C2294   1.419       .  A
C2293     Br2300   1.929       .  S
C2294      C2295   1.408       .  A
C2294     Br2299   1.928       .  S
C2295      C2296   1.408       .  A
C2296     Br2297   1.926       .  S
C2301      C2302   1.406       .  A
C2301      C2306   1.406       .  A
C2301     Br2308   1.909       .  S
C2302      C2303   1.418       .  A
C2303      C2304   1.404       .  A
C2303     Br2310   1.931       .  S
C2304      C2305   1.415       .  A
C2304     Br2309   1.928       .  S
C2305      C2306   1.415       .  A
C2306     Br2307   1.920       .  S
C2311      C2312   1.404       .  A
C2311      C2316   1.412       .  A
C2311     Br2318   1.924       .  S
C2312      C2313   1.413       .  A
C2313      C2314   1.413       .  A
C2313     Br2320   1.922       .  S
C2314      C2315   1.420       .  A
C2314     Br2319   1.939       .  S
C2315      C2316   1.428       .  A
C2316     Br2317   1.936       .  S
C2321      C2322   1.414       .  A
C2321      C2326   1.411       .  A
C2321     Br2328   1.926       .  S
C2322      C2323   1.416       .  A
C2323      C2324   1.423       .  A
C2323     Br2330   1.923       .  S
C2324      C2325   1.412       .  A
C2324     Br2329   1.923       .  S
C2325      C2326   1.411       .  A
C2326     Br2327   1.923       .  S
C2331      C2332   1.406       .  A
C2331      C2336   1.405       .  A
C2331     Br2338   1.934       .  S
C2332      C2333   1.404       .  A
C2333      C2334   1.404       .  A
C2333     Br2340   1.930       .  S
C2334      C2335   1.417       .  A
C2334     Br2339   1.932       .  S
C2335      C2336   1.418       .  A
C2336     Br2337   1.928       .  S
C2341      C2342   1.409       .  A
C2341      C2346   1.420       .  A
C2341     Br2348   1.928       .  S
C2342      C2343   1.415       .  A
C2343      C2344   1.408       .  A
C2343     Br2350   1.910       .  S
C2344      C2345   1.405       .  A
C2344     Br2349   1.932       .  S
C2345      C2346   1.421       .  A
C2346     Br2347   1.930       .  S
C2351      C2352   1.409       .  A
C2351      C2356   1.403       .  A
C2351     Br2358   1.931       .  S
C2352      C2353   1.418       .  A
C2353      C2354   1.406       .  A
C2353     Br2360   1.927       .  S
C2354      C2355   1.414       .  A
C2354     Br2359   1.935       .  S
C2355      C2356   1.422       .  A
C2356     Br2357   1.940       .  S
C2361      C2362   1.414       .  A
C2361      C2366   1.406       .  A
C2361     Br2368   1.922       .  S
C2362      C2363   1.407       .  A
C2363      C2364   1.406       .  A
C2363     Br2370   1.936       .  S
C2364      C2365   1.423       .  A
C2364     Br2369   1.939       .  S
C2365      C2366   1.417       .  A
C2366     Br2367   1.944       .  S
C2371      C2372   1.407       .  A
C2371      C2376   1.423       .  A
C2371     Br2378   1.919       .  S
C2372      C2373   1.416       .  A
C2373      C2374   1.418       .  A
C2373     Br2380   1.924       .  S
C2374      C2375   1.424       .  A
C2374     Br2379   1.935       .  S
C2375      C2376   1.433       .  A
C2376     Br2377   1.935       .  S
C2381      C2382   1.415       .  A
C2381      C2386   1.415       .  A
C2381     Br2388   1.935       .  S
C2382      C2383   1.414       .  A
C2383      C2384   1.418       .  A
C2383     Br2390   1.936       .  S
C2384      C2385   1.430       .  A
C2384     Br2389   1.937       .  S
C2385      C2386   1.417       .  A
C2386     Br2387   1.907       .  S
C2391      C2392   1.402       .  A
C2391      C2396   1.407       .  A
C2391     Br2398   1.926       .  S
C2392      C2393   1.414       .  A
C2393      C2394   1.406       .  A
C2393     Br2400   1.914       .  S
C2394      C2395   1.408       .  A
C2394     Br2399   1.937       .  S
C2395      C2396   1.430       .  A
C2396     Br2397   1.941       .  S
C2401      C2402   1.411       .  A
C2401      C2406   1.410       .  A
C2401     Br2408   1.927       .  S
C2402      C2403   1.411       .  A
C2403      C2404   1.402       .  A
C2403     Br2410   1.926       .  S
C2404      C2405   1.408       .  A
C2404     Br2409   1.930       .  S
C2405      C2406   1.407       .  A
C2406     Br2407   1.928       .  S
C2411      C2412   1.416       .  A
C2411      C2416   1.420       .  A
C2411     Br2418   1.931       .  S
C2412      C2413   1.418       .  A
C2413      C2414   1.406       .  A
C2413     Br2420   1.930       .  S
C2414      C2415   1.411       .  A
C2414     Br2419   1.934       .  S
C2415      C2416   1.417       .  A
C2416     Br2417   1.927       .  S
C2421      C2422   1.409       .  A
C2421      C2426   1.418   1_556  A
C2421     Br2428   1.925       .  S
C2422      C2423   1.419       .  A
C2423      C2424   1.397   1_556  A
C2423     Br2430   1.918       .  S
C2424      C2425   1.409       .  A
C2424     Br2429   1.944       .  S
C2425      C2426   1.425       .  A
C2426     Br2427   1.931       .  S
C2431      C2432   1.405       .  A
C2431      C2436   1.419   1_556  A
C2431     Br2438   1.928       .  S
C2432      C2433   1.405       .  A
C2433      C2434   1.407   1_556  A
C2433     Br2440   1.926       .  S
C2434      C2435   1.415       .  A
C2434     Br2439   1.918       .  S
C2435      C2436   1.420       .  A
C2436     Br2437   1.910       .  S
C2441      C2442   1.404       .  A
C2441      C2446   1.396       .  A
C2441     Br2448   1.927       .  S
C2442      C2443   1.411       .  A
C2443      C2444   1.416       .  A
C2443     Br2450   1.924       .  S
C2444      C2445   1.414       .  A
C2444     Br2449   1.928       .  S
C2445      C2446   1.413       .  A
C2446     Br2447   1.919       .  S
C2451      C2452   1.418       .  A
C2451      C2456   1.425       .  A
C2451     Br2458   1.927       .  S
C2452      C2453   1.417       .  A
C2453      C2454   1.409       .  A
C2453     Br2460   1.939       .  S
C2454      C2455   1.409       .  A
C2454     Br2459   1.912       .  S
C2455      C2456   1.416       .  A
C2456     Br2457   1.920       .  S
C2461      C2462   1.405       .  A
C2461      C2466   1.416       .  A
C2461     Br2468   1.932       .  S
C2462      C2463   1.421       .  A
C2463      C2464   1.410       .  A
C2463     Br2470   1.936       .  S
C2464      C2465   1.408       .  A
C2464     Br2469   1.924       .  S
C2465      C2466   1.423       .  A
C2466     Br2467   1.920       .  S
C2471      C2472   1.410       .  A
C2471      C2476   1.411       .  A
C2471     Br2478   1.931       .  S
C2472      C2473   1.403       .  A
C2473      C2474   1.408       .  A
C2473     Br2480   1.936       .  S
C2474      C2475   1.426       .  A
C2474     Br2479   1.934       .  S
C2475      C2476   1.417       .  A
C2476     Br2477   1.933       .  S
C2481      C2482   1.409       .  A
C2481      C2486   1.400       .  A
C2481     Br2488   1.931       .  S
C2482      C2483   1.394       .  A
C2483      C2484   1.395       .  A
C2483     Br2490   1.936       .  S
C2484      C2485   1.428       .  A
C2484     Br2489   1.935       .  S
C2485      C2486   1.416       .  A
C2486     Br2487   1.941       .  S
C2491      C2492   1.407       .  A
C2491      C2496   1.400       .  A
C2491     Br2498   1.926       .  S
C2492      C2493   1.410       .  A
C2493      C2494   1.405       .  A
C2493     Br2500   1.936       .  S
C2494      C2495   1.417       .  A
C2494     Br2499   1.938       .  S
C2495      C2496   1.409       .  A
C2496     Br2497   1.931       .  S
C2501      C2502   1.408       .  A
C2501      C2506   1.401       .  A
C2501     Br2508   1.936       .  S
C2502      C2503   1.408       .  A
C2503      C2504   1.396       .  A
C2503     Br2510   1.921       .  S
C2504      C2505   1.405       .  A
C2504     Br2509   1.921       .  S
C2505      C2506   1.413       .  A
C2506     Br2507   1.917       .  S
C2511      C2512   1.422       .  A
C2511      C2516   1.422       .  A
C2511     Br2518   1.934       .  S
C2512      C2513   1.422       .  A
C2513      C2514   1.417       .  A
C2513     Br2520   1.939       .  S
C2514      C2515   1.414       .  A
C2514     Br2519   1.906       .  S
C2515      C2516   1.424       .  A
C2516     Br2517   1.934       .  S
C2521      C2522   1.415       .  A
C2521      C2526   1.416       .  A
C2521     Br2528   1.931       .  S
C2522      C2523   1.429       .  A
C2523      C2524   1.417       .  A
C2523     Br2530   1.927       .  S
C2524      C2525   1.403       .  A
C2524     Br2529   1.932       .  S
C2525      C2526   1.413       .  A
C2526     Br2527   1.922       .  S
C2531      C2532   1.425       .  A
C2531      C2536   1.420       .  A
C2531     Br2538   1.929       .  S
C2532      C2533   1.421       .  A
C2533      C2534   1.403       .  A
C2533     Br2540   1.930       .  S
C2534      C2535   1.418       .  A
C2534     Br2539   1.944       .  S
C2535      C2536   1.410       .  A
C2536     Br2537   1.932       .  S
C2541      C2542   1.422       .  A
C2541      C2546   1.393       .  A
C2541     Br2548   1.940       .  S
C2542      C2543   1.416       .  A
C2543      C2544   1.402       .  A
C2543     Br2550   1.937       .  S
C2544      C2545   1.407       .  A
C2544     Br2549   1.936       .  S
C2545      C2546   1.401       .  A
C2546     Br2547   1.930       .  S
C2551      C2552   1.423       .  A
C2551      C2556   1.413       .  A
C2551     Br2558   1.934       .  S
C2552      C2553   1.416       .  A
C2553      C2554   1.407       .  A
C2553     Br2560   1.935       .  S
C2554      C2555   1.415       .  A
C2554     Br2559   1.918       .  S
C2555      C2556   1.412       .  A
C2556     Br2557   1.910       .  S
C2561      C2562   1.414       .  A
C2561      C2566   1.421       .  A
C2561     Br2568   1.926       .  S
C2562      C2563   1.410       .  A
C2563      C2564   1.406       .  A
C2563     Br2570   1.929       .  S
C2564      C2565   1.414       .  A
C2564     Br2569   1.934       .  S
C2565      C2566   1.413       .  A
C2566     Br2567   1.924       .  S
C2571      C2572   1.413       .  A
C2571      C2576   1.418       .  A
C2571     Br2578   1.921       .  S
C2572      C2573   1.412       .  A
C2573      C2574   1.405       .  A
C2573     Br2580   1.928       .  S
C2574      C2575   1.403       .  A
C2574     Br2579   1.916       .  S
C2575      C2576   1.415       .  A
C2576     Br2577   1.925       .  S
C2581      C2582   1.416       .  A
C2581      C2586   1.415   1_556  A
C2581     Br2588   1.924       .  S
C2582      C2583   1.403       .  A
C2583      C2584   1.413   1_556  A
C2583     Br2590   1.936       .  S
C2584      C2585   1.433       .  A
C2584     Br2589   1.938       .  S
C2585      C2586   1.421       .  A
C2586     Br2587   1.938       .  S
C2591      C2592   1.412       .  A
C2591      C2596   1.402   1_556  A
C2591     Br2598   1.938       .  S
C2592      C2593   1.419       .  A
C2593      C2594   1.413   1_556  A
C2593     Br2600   1.931       .  S
C2594      C2595   1.413       .  A
C2594     Br2599   1.931       .  S
C2595      C2596   1.416       .  A
C2596     Br2597   1.939       .  S
C2601      C2602   1.412       .  A
C2601      C2606   1.417   1_655  A
C2601     Br2608   1.927       .  S
C2602      C2603   1.418       .  A
C2603      C2604   1.417   1_655  A
C2603     Br2610   1.931       .  S
C2604      C2605   1.410       .  A
C2604     Br2609   1.926       .  S
C2605      C2606   1.412       .  A
C2606     Br2607   1.918       .  S
C2611      C2612   1.427       .  A
C2611      C2616   1.413       .  A
C2611     Br2618   1.938       .  S
C2612      C2613   1.415       .  A
C2613      C2614   1.411       .  A
C2613     Br2620   1.928       .  S
C2614      C2615   1.409       .  A
C2614     Br2619   1.924       .  S
C2615      C2616   1.408       .  A
C2616     Br2617   1.933       .  S
C2621      C2622   1.408       .  A
C2621      C2626   1.401   1_655  A
C2621     Br2628   1.929       .  S
C2622      C2623   1.407       .  A
C2623      C2624   1.407   1_655  A
C2623     Br2630   1.930       .  S
C2624      C2625   1.418       .  A
C2624     Br2629   1.935       .  S
C2625      C2626   1.414       .  A
C2626     Br2627   1.934       .  S
C2631      C2632   1.438       .  A
C2631      C2636   1.433       .  A
C2631     Br2638   1.938       .  S
C2632      C2633   1.421       .  A
C2633      C2634   1.425       .  A
C2633     Br2640   1.918       .  S
C2634      C2635   1.413       .  A
C2634     Br2639   1.918       .  S
C2635      C2636   1.420       .  A
C2636     Br2637   1.931       .  S
C2641      C2642   1.420       .  A
C2641      C2646   1.420       .  A
C2641     Br2648   1.940       .  S
C2642      C2643   1.415       .  A
C2643      C2644   1.427       .  A
C2643     Br2650   1.933       .  S
C2644      C2645   1.431       .  A
C2644     Br2649   1.932       .  S
C2645      C2646   1.421       .  A
C2646     Br2647   1.936       .  S
C2651      C2652   1.400       .  A
C2651      C2656   1.409       .  A
C2651     Br2658   1.926       .  S
C2652      C2653   1.419       .  A
C2653      C2654   1.416       .  A
C2653     Br2660   1.921       .  S
C2654      C2655   1.412       .  A
C2654     Br2659   1.934       .  S
C2655      C2656   1.422       .  A
C2656     Br2657   1.919       .  S
C2661      C2662   1.410       .  A
C2661      C2666   1.412       .  A
C2661     Br2668   1.927       .  S
C2662      C2663   1.415       .  A
C2663      C2664   1.410       .  A
C2663     Br2670   1.932       .  S
C2664      C2665   1.408       .  A
C2664     Br2669   1.928       .  S
C2665      C2666   1.410       .  A
C2666     Br2667   1.920       .  S
C2671      C2672   1.411       .  A
C2671      C2676   1.409       .  A
C2671     Br2678   1.908       .  S
C2672      C2673   1.431       .  A
C2673      C2674   1.407       .  A
C2673     Br2680   1.938       .  S
C2674      C2675   1.412       .  A
C2674     Br2679   1.933       .  S
C2675      C2676   1.416       .  A
C2676     Br2677   1.931       .  S
C2681      C2682   1.409       .  A
C2681      C2686   1.407       .  A
C2681     Br2688   1.920       .  S
C2682      C2683   1.409       .  A
C2683      C2684   1.418       .  A
C2683     Br2690   1.926       .  S
C2684      C2685   1.428       .  A
C2684     Br2689   1.921       .  S
C2685      C2686   1.405       .  A
C2686     Br2687   1.927       .  S
C2691      C2692   1.408       .  A
C2691      C2696   1.409       .  A
C2691     Br2698   1.927       .  S
C2692      C2693   1.410       .  A
C2693      C2694   1.405       .  A
C2693     Br2700   1.931       .  S
C2694      C2695   1.412       .  A
C2694     Br2699   1.930       .  S
C2695      C2696   1.415       .  A
C2696     Br2697   1.933       .  S
C2701      C2702   1.418       .  A
C2701      C2706   1.411       .  A
C2701     Br2708   1.935       .  S
C2702      C2703   1.400       .  A
C2703      C2704   1.406       .  A
C2703     Br2710   1.936       .  S
C2704      C2705   1.421       .  A
C2704     Br2709   1.915       .  S
C2705      C2706   1.414       .  A
C2706     Br2707   1.930       .  S
C2711      C2712   1.400       .  A
C2711      C2716   1.395       .  A
C2711     Br2718   1.916       .  S
C2712      C2713   1.411       .  A
C2713      C2714   1.392       .  A
C2713     Br2720   1.921       .  S
C2714      C2715   1.397       .  A
C2714     Br2719   1.919       .  S
C2715      C2716   1.411       .  A
C2716     Br2717   1.924       .  S
C2721      C2722   1.397       .  A
C2721      C2726   1.380       .  A
C2721     Br2728   1.906       .  S
C2722      C2723   1.426       .  A
C2723      C2724   1.424       .  A
C2723     Br2730   1.936       .  S
C2724      C2725   1.420       .  A
C2724     Br2729   1.931       .  S
C2725      C2726   1.421       .  A
C2726     Br2727   1.947       .  S
C2731      C2732   1.428       .  A
C2731      C2736   1.409       .  A
C2731     Br2738   1.939       .  S
C2732      C2733   1.433       .  A
C2733      C2734   1.409       .  A
C2733     Br2740   1.938       .  S
C2734      C2735   1.398       .  A
C2734     Br2739   1.931       .  S
C2735      C2736   1.405       .  A
C2736     Br2737   1.929       .  S
C2741      C2742   1.401       .  A
C2741      C2746   1.404       .  A
C2741     Br2748   1.921       .  S
C2742      C2743   1.412       .  A
C2743      C2744   1.422       .  A
C2743     Br2750   1.926       .  S
C2744      C2745   1.417       .  A
C2744     Br2749   1.924       .  S
C2745      C2746   1.404       .  A
C2746     Br2747   1.914       .  S
C2751      C2752   1.407       .  A
C2751      C2756   1.398       .  A
C2751     Br2758   1.936       .  S
C2752      C2753   1.403       .  A
C2753      C2754   1.391       .  A
C2753     Br2760   1.928       .  S
C2754      C2755   1.409       .  A
C2754     Br2759   1.918       .  S
C2755      C2756   1.410       .  A
C2756     Br2757   1.930       .  S
C2761      C2762   1.409       .  A
C2761      C2766   1.404       .  A
C2761     Br2768   1.935       .  S
C2762      C2763   1.399       .  A
C2763      C2764   1.390       .  A
C2763     Br2770   1.901       .  S
C2764      C2765   1.394       .  A
C2764     Br2769   1.927       .  S
C2765      C2766   1.419       .  A
C2766     Br2767   1.933       .  S
C2771      C2772   1.403       .  A
C2771      C2776   1.410       .  A
C2771     Br2778   1.941       .  S
C2772      C2773   1.419       .  A
C2773      C2774   1.415       .  A
C2773     Br2780   1.924       .  S
C2774      C2775   1.411       .  A
C2774     Br2779   1.935       .  S
C2775      C2776   1.430       .  A
C2776     Br2777   1.921       .  S
C2781      C2782   1.414       .  A
C2781      C2786   1.429       .  A
C2781     Br2788   1.929       .  S
C2782      C2783   1.418       .  A
C2783      C2784   1.415       .  A
C2783     Br2790   1.936       .  S
C2784      C2785   1.411       .  A
C2784     Br2789   1.898       .  S
C2785      C2786   1.424       .  A
C2786     Br2787   1.921       .  S
C2791      C2792   1.418       .  A
C2791      C2796   1.424       .  A
C2791     Br2798   1.929       .  S
C2792      C2793   1.416       .  A
C2793      C2794   1.418       .  A
C2793     Br2800   1.924       .  S
C2794      C2795   1.417       .  A
C2794     Br2799   1.936       .  S
C2795      C2796   1.414       .  A
C2796     Br2797   1.906       .  S
C2801      C2802   1.418       .  A
C2801      C2806   1.421   1_556  A
C2801     Br2808   1.923       .  S
C2802      C2803   1.414       .  A
C2803      C2804   1.408   1_556  A
C2803     Br2810   1.940       .  S
C2804      C2805   1.414       .  A
C2804     Br2809   1.921       .  S
C2805      C2806   1.411       .  A
C2806     Br2807   1.929       .  S
C2811      C2812   1.414       .  A
C2811      C2816   1.414   1_565  A
C2811     Br2818   1.934       .  S
C2812      C2813   1.415       .  A
C2813      C2814   1.410   1_565  A
C2813     Br2820   1.935       .  S
C2814      C2815   1.416       .  A
C2814     Br2819   1.934       .  S
C2815      C2816   1.420       .  A
C2816     Br2817   1.932       .  S
C2821      C2822   1.412       .  A
C2821      C2826   1.413   1_545  A
C2821     Br2828   1.926       .  S
C2822      C2823   1.409       .  A
C2823      C2824   1.406   1_545  A
C2823     Br2830   1.930       .  S
C2824      C2825   1.411       .  A
C2824     Br2829   1.927       .  S
C2825      C2826   1.412       .  A
C2826     Br2827   1.931       .  S
C2831      C2832   1.411       .  A
C2831      C2836   1.422       .  A
C2831     Br2838   1.929       .  S
C2832      C2833   1.422       .  A
C2833      C2834   1.413       .  A
C2833     Br2840   1.939       .  S
C2834      C2835   1.409       .  A
C2834     Br2839   1.921       .  S
C2835      C2836   1.423       .  A
C2836     Br2837   1.931       .  S
C2841      C2842   1.419       .  A
C2841      C2846   1.424   1_556  A
C2841     Br2848   1.935       .  S
C2842      C2843   1.420       .  A
C2843      C2844   1.422   1_556  A
C2843     Br2850   1.937       .  S
C2844      C2845   1.424       .  A
C2844     Br2849   1.935       .  S
C2845      C2846   1.426       .  A
C2846     Br2847   1.933       .  S
C2851      C2852   1.417       .  A
C2851      C2856   1.414       .  A
C2851     Br2858   1.928       .  S
C2852      C2853   1.426       .  A
C2853      C2854   1.421       .  A
C2853     Br2860   1.931       .  S
C2854      C2855   1.411       .  A
C2854     Br2859   1.930       .  S
C2855      C2856   1.410       .  A
C2856     Br2857   1.931       .  S
C2861      C2862   1.410       .  A
C2861      C2866   1.415       .  A
C2861     Br2868   1.929       .  S
C2862      C2863   1.419       .  A
C2863      C2864   1.412       .  A
C2863     Br2870   1.937       .  S
C2864      C2865   1.416       .  A
C2864     Br2869   1.936       .  S
C2865      C2866   1.419       .  A
C2866     Br2867   1.929       .  S
C2871      C2872   1.414       .  A
C2871      C2876   1.425       .  A
C2871     Br2878   1.926       .  S
C2872      C2873   1.420       .  A
C2873      C2874   1.411       .  A
C2873     Br2880   1.930       .  S
C2874      C2875   1.410       .  A
C2874     Br2879   1.930       .  S
C2875      C2876   1.418       .  A
C2876     Br2877   1.927       .  S
C2881      C2882   1.420       .  A
C2881      C2886   1.402       .  A
C2881     Br2888   1.922       .  S
C2882      C2883   1.424       .  A
C2883      C2884   1.405       .  A
C2883     Br2890   1.939       .  S
C2884      C2885   1.411       .  A
C2884     Br2889   1.939       .  S
C2885      C2886   1.404       .  A
C2886     Br2887   1.932       .  S
C2891      C2892   1.405       .  A
C2891      C2896   1.407       .  A
C2891     Br2898   1.924       .  S
C2892      C2893   1.408       .  A
C2893      C2894   1.405       .  A
C2893     Br2900   1.939       .  S
C2894      C2895   1.418       .  A
C2894     Br2899   1.923       .  S
C2895      C2896   1.410       .  A
C2896     Br2897   1.918       .  S
C2901      C2902   1.402       .  A
C2901      C2906   1.403       .  A
C2901     Br2908   1.931       .  S
C2902      C2903   1.420       .  A
C2903      C2904   1.405       .  A
C2903     Br2910   1.932       .  S
C2904      C2905   1.407       .  A
C2904     Br2909   1.939       .  S
C2905      C2906   1.420       .  A
C2906     Br2907   1.937       .  S
C2911      C2912   1.410       .  A
C2911      C2916   1.411       .  A
C2911     Br2918   1.928       .  S
C2912      C2913   1.404       .  A
C2913      C2914   1.396       .  A
C2913     Br2920   1.923       .  S
C2914      C2915   1.402       .  A
C2914     Br2919   1.909       .  S
C2915      C2916   1.412       .  A
C2916     Br2917   1.928       .  S
C2921      C2922   1.408       .  A
C2921      C2926   1.397       .  A
C2921     Br2928   1.947       .  S
C2922      C2923   1.415       .  A
C2923      C2924   1.407       .  A
C2923     Br2930   1.937       .  S
C2924      C2925   1.419       .  A
C2924     Br2929   1.932       .  S
C2925      C2926   1.412       .  A
C2926     Br2927   1.902       .  S
C2931      C2932   1.401       .  A
C2931      C2936   1.407       .  A
C2931     Br2938   1.928       .  S
C2932      C2933   1.427       .  A
C2933      C2934   1.399       .  A
C2933     Br2940   1.944       .  S
C2934      C2935   1.408       .  A
C2934     Br2939   1.939       .  S
C2935      C2936   1.434       .  A
C2936     Br2937   1.941       .  S
C2941      C2942   1.419       .  A
C2941      C2946   1.425       .  A
C2941     Br2948   1.926       .  S
C2942      C2943   1.409       .  A
C2943      C2944   1.409       .  A
C2943     Br2950   1.921       .  S
C2944      C2945   1.410       .  A
C2944     Br2949   1.920       .  S
C2945      C2946   1.416       .  A
C2946     Br2947   1.928       .  S
C2951      C2952   1.418       .  A
C2951      C2956   1.410       .  A
C2951     Br2958   1.929       .  S
C2952      C2953   1.417       .  A
C2953      C2954   1.432       .  A
C2953     Br2960   1.926       .  S
C2954      C2955   1.419       .  A
C2954     Br2959   1.924       .  S
C2955      C2956   1.417       .  A
C2956     Br2957   1.940       .  S
C2961      C2962   1.404       .  A
C2961      C2966   1.397       .  A
C2961     Br2968   1.920       .  S
C2962      C2963   1.416       .  A
C2963      C2964   1.416       .  A
C2963     Br2970   1.912       .  S
C2964      C2965   1.407       .  A
C2964     Br2969   1.926       .  S
C2965      C2966   1.411       .  A
C2966     Br2967   1.925       .  S
C2971      C2972   1.412       .  A
C2971      C2976   1.417       .  A
C2971     Br2978   1.933       .  S
C2972      C2973   1.422       .  A
C2973      C2974   1.410       .  A
C2973     Br2980   1.937       .  S
C2974      C2975   1.410       .  A
C2974     Br2979   1.919       .  S
C2975      C2976   1.419       .  A
C2976     Br2977   1.925       .  S
C2981      C2982   1.412       .  A
C2981      C2986   1.419       .  A
C2981     Br2988   1.926       .  S
C2982      C2983   1.425       .  A
C2983      C2984   1.416       .  A
C2983     Br2990   1.939       .  S
C2984      C2985   1.413       .  A
C2984     Br2989   1.932       .  S
C2985      C2986   1.415       .  A
C2986     Br2987   1.912       .  S
C2991      C2992   1.415       .  A
C2991      C2996   1.421       .  A
C2991     Br2998   1.926       .  S
C2992      C2993   1.414       .  A
C2993      C2994   1.402       .  A
C2993     Br3000   1.926       .  S
C2994      C2995   1.411       .  A
C2994     Br2999   1.940       .  S
C2995      C2996   1.415       .  A
C2996     Br2997   1.926       .  S
C3001      C3002   1.410       .  A
C3001      C3006   1.416   1_556  A
C3001     Br3008   1.935       .  S
C3002      C3003   1.430       .  A
C3003      C3004   1.410   1_556  A
C3003     Br3010   1.931       .  S
C3004      C3005   1.409       .  A
C3004     Br3009   1.940       .  S
C3005      C3006   1.424       .  A
C3006     Br3007   1.927       .  S
C3011      C3012   1.413       .  A
C3011      C3016   1.411   1_655  A
C3011     Br3018   1.928       .  S
C3012      C3013   1.415       .  A
C3013      C3014   1.415   1_655  A
C3013     Br3020   1.933       .  S
C3014      C3015   1.416       .  A
C3014     Br3019   1.932       .  S
C3015      C3016   1.415       .  A
C3016     Br3017   1.932       .  S
C3021      C3022   1.409       .  A
C3021      C3026   1.410   1_556  A
C3021     Br3028   1.927       .  S
C3022      C3023   1.417       .  A
C3023      C3024   1.403   1_556  A
C3023     Br3030   1.930       .  S
C3024      C3025   1.408       .  A
C3024     Br3029   1.936       .  S
C3025      C3026   1.412       .  A
C3026     Br3027   1.924       .  S
C3031      C3032   1.427       .  A
C3031      C3036   1.420   1_545  A
C3031     Br3038   1.924       .  S
C3032      C3033   1.427       .  A
C3033      C3034   1.425   1_545  A
C3033     Br3040   1.931       .  S
C3034      C3035   1.411       .  A
C3034     Br3039   1.930       .  S
C3035      C3036   1.408       .  A
C3036     Br3037   1.935       .  S
C3041      C3042   1.417       .  A
C3041      C3046   1.416       .  A
C3041     Br3048   1.925       .  S
C3042      C3043   1.410       .  A
C3043      C3044   1.411       .  A
C3043     Br3050   1.935       .  S
C3044      C3045   1.422       .  A
C3044     Br3049   1.935       .  S
C3045      C3046   1.409       .  A
C3046     Br3047   1.924       .  S
C3051      C3052   1.409       .  A
C3051      C3056   1.416   1_655  A
C3051     Br3058   1.929       .  S
C3052      C3053   1.419       .  A
C3053      C3054   1.422   1_655  A
C3053     Br3060   1.931       .  S
C3054      C3055   1.415       .  A
C3054     Br3059   1.928       .  S
C3055      C3056   1.420       .  A
C3056     Br3057   1.925       .  S
C3061      C3062   1.414       .  A
C3061      C3066   1.402   1_545  A
C3061     Br3068   1.929       .  S
C3062      C3063   1.413       .  A
C3063      C3064   1.408   1_545  A
C3063     Br3070   1.932       .  S
C3064      C3065   1.411       .  A
C3064     Br3069   1.933       .  S
C3065      C3066   1.405       .  A
C3066     Br3067   1.929       .  S
C3071      C3072   1.414       .  A
C3071      C3076   1.414       .  A
C3071     Br3078   1.931       .  S
C3072      C3073   1.415       .  A
C3073      C3074   1.409       .  A
C3073     Br3080   1.934       .  S
C3074      C3075   1.415       .  A
C3074     Br3079   1.926       .  S
C3075      C3076   1.423       .  A
C3076     Br3077   1.938   1_545  S
C3081      C3082   1.425       .  A
C3081      C3086   1.416       .  A
C3081     Br3088   1.921       .  S
C3082      C3083   1.409       .  A
C3083      C3084   1.416       .  A
C3083     Br3090   1.930       .  S
C3084      C3085   1.424       .  A
C3084     Br3089   1.930       .  S
C3085      C3086   1.405       .  A
C3086     Br3087   1.932       .  S
C3091      C3092   1.416       .  A
C3091      C3096   1.414       .  A
C3091     Br3098   1.927       .  S
C3092      C3093   1.415       .  A
C3093      C3094   1.420       .  A
C3093     Br3100   1.904       .  S
C3094      C3095   1.409       .  A
C3094     Br3099   1.927       .  S
C3095      C3096   1.419       .  A
C3096     Br3097   1.938       .  S
C3101      C3102   1.420       .  A
C3101      C3106   1.418       .  A
C3101     Br3108   1.936       .  S
C3102      C3103   1.414       .  A
C3103      C3104   1.422       .  A
C3103     Br3110   1.925       .  S
C3104      C3105   1.420       .  A
C3104     Br3109   1.932       .  S
C3105      C3106   1.425       .  A
C3106     Br3107   1.939       .  S
C3111      C3112   1.419       .  A
C3111      C3116   1.407       .  A
C3111     Br3118   1.928       .  S
C3112      C3113   1.412       .  A
C3113      C3114   1.415       .  A
C3113     Br3120   1.932       .  S
C3114      C3115   1.421       .  A
C3114     Br3119   1.934       .  S
C3115      C3116   1.412       .  A
C3116     Br3117   1.936       .  S
C3121      C3122   1.432       .  A
C3121      C3126   1.403       .  A
C3121     Br3128   1.940       .  S
C3122      C3123   1.418       .  A
C3123      C3124   1.402       .  A
C3123     Br3130   1.943       .  S
C3124      C3125   1.409       .  A
C3124     Br3129   1.922       .  S
C3125      C3126   1.397       .  A
C3126     Br3127   1.932       .  S
C3131      C3132   1.407       .  A
C3131      C3136   1.404       .  A
C3131     Br3138   1.939       .  S
C3132      C3133   1.413       .  A
C3133      C3134   1.418       .  A
C3133     Br3140   1.907       .  S
C3134      C3135   1.413       .  A
C3134     Br3139   1.932       .  S
C3135      C3136   1.419       .  A
C3136     Br3137   1.926       .  S
C3141      C3142   1.413       .  A
C3141      C3146   1.403       .  A
C3141     Br3148   1.933       .  S
C3142      C3143   1.417       .  A
C3143      C3144   1.434       .  A
C3143     Br3150   1.924       .  S
C3144      C3145   1.426       .  A
C3144     Br3149   1.926       .  S
C3145      C3146   1.428       .  A
C3146     Br3147   1.946       .  S
C3151      C3152   1.410       .  A
C3151      C3156   1.413       .  A
C3151     Br3158   1.930       .  S
C3152      C3153   1.413       .  A
C3153      C3154   1.417       .  A
C3153     Br3160   1.930       .  S
C3154      C3155   1.422       .  A
C3154     Br3159   1.933       .  S
C3155      C3156   1.417       .  A
C3156     Br3157   1.926       .  S
C3161      C3162   1.412       .  A
C3161      C3166   1.405       .  A
C3161     Br3168   1.925       .  S
C3162      C3163   1.409       .  A
C3163      C3164   1.409       .  A
C3163     Br3170   1.932       .  S
C3164      C3165   1.412       .  A
C3164     Br3169   1.926       .  S
C3165      C3166   1.409       .  A
C3166     Br3167   1.934       .  S
C3171      C3172   1.418       .  A
C3171      C3176   1.402       .  A
C3171     Br3178   1.930       .  S
C3172      C3173   1.405       .  A
C3173      C3174   1.391       .  A
C3173     Br3180   1.933       .  S
C3174      C3175   1.407       .  A
C3174     Br3179   1.921       .  S
C3175      C3176   1.401       .  A
C3176     Br3177   1.926       .  S
C3181      C3182   1.431       .  A
C3181      C3186   1.410       .  A
C3181     Br3188   1.946       .  S
C3182      C3183   1.422       .  A
C3183      C3184   1.415       .  A
C3183     Br3190   1.924       .  S
C3184      C3185   1.406       .  A
C3184     Br3189   1.922       .  S
C3185      C3186   1.405       .  A
C3186     Br3187   1.921       .  S
C3191      C3192   1.419       .  A
C3191      C3196   1.420       .  A
C3191     Br3198   1.931       .  S
C3192      C3193   1.423       .  A
C3193      C3194   1.418       .  A
C3193     Br3200   1.923       .  S
C3194      C3195   1.410       .  A
C3194     Br3199   1.935       .  S
C3195      C3196   1.416       .  A
C3196     Br3197   1.926       .  S
C3201      C3202   1.413       .  A
C3201      C3206   1.406       .  A
C3201     Br3208   1.932       .  S
C3202      C3203   1.412       .  A
C3203      C3204   1.410       .  A
C3203     Br3210   1.931       .  S
C3204      C3205   1.415       .  A
C3204     Br3209   1.929       .  S
C3205      C3206   1.411       .  A
C3206     Br3207   1.932       .  S
C3211      C3212   1.412       .  A
C3211      C3216   1.413       .  A
C3211     Br3218   1.934       .  S
C3212      C3213   1.422       .  A
C3213      C3214   1.420       .  A
C3213     Br3220   1.930       .  S
C3214      C3215   1.411       .  A
C3214     Br3219   1.929       .  S
C3215      C3216   1.418       .  A
C3216     Br3217   1.921       .  S
C3221      C3222   1.407       .  A
C3221      C3226   1.409       .  A
C3221     Br3228   1.927       .  S
C3222      C3223   1.406       .  A
C3223      C3224   1.390       .  A
C3223     Br3230   1.912       .  S
C3224      C3225   1.402       .  A
C3224     Br3229   1.929       .  S
C3225      C3226   1.411       .  A
C3226     Br3227   1.926       .  S
C3231      C3232   1.413       .  A
C3231      C3236   1.409       .  A
C3231     Br3238   1.926       .  S
C3232      C3233   1.408       .  A
C3233      C3234   1.412       .  A
C3233     Br3240   1.924       .  S
C3234      C3235   1.415       .  A
C3234     Br3239   1.924       .  S
C3235      C3236   1.410       .  A
C3236     Br3237   1.931       .  S
C3241      C3242   1.414       .  A
C3241      C3246   1.411       .  A
C3241     Br3248   1.934       .  S
C3242      C3243   1.412       .  A
C3243      C3244   1.415       .  A
C3243     Br3250   1.898       .  S
C3244      C3245   1.406       .  A
C3244     Br3249   1.927       .  S
C3245      C3246   1.417       .  A
C3246     Br3247   1.921       .  S
C3251      C3252   1.413       .  A
C3251      C3256   1.418       .  A
C3251     Br3258   1.930       .  S
C3252      C3253   1.414       .  A
C3253      C3254   1.402       .  A
C3253     Br3260   1.934       .  S
C3254      C3255   1.411       .  A
C3254     Br3259   1.935       .  S
C3255      C3256   1.415       .  A
C3256     Br3257   1.927       .  S
C3261      C3262   1.407       .  A
C3261      C3266   1.415       .  A
C3261     Br3268   1.932       .  S
C3262      C3263   1.414       .  A
C3263      C3264   1.402       .  A
C3263     Br3270   1.920       .  S
C3264      C3265   1.409       .  A
C3264     Br3269   1.934       .  S
C3265      C3266   1.422       .  A
C3266     Br3267   1.921       .  S
C3271      C3272   1.421       .  A
C3271      C3276   1.388       .  A
C3271     Br3278   1.919       .  S
C3272      C3273   1.416       .  A
C3273      C3274   1.415       .  A
C3273     Br3280   1.927       .  S
C3274      C3275   1.404       .  A
C3274     Br3279   1.924       .  S
C3275      C3276   1.388       .  A
C3276     Br3277   1.930       .  S
C3281      C3282   1.419       .  A
C3281      C3286   1.413       .  A
C3281     Br3288   1.914       .  S
C3282      C3283   1.426       .  A
C3283      C3284   1.420       .  A
C3283     Br3290   1.933       .  S
C3284      C3285   1.420       .  A
C3284     Br3289   1.939       .  S
C3285      C3286   1.416       .  A
C3286     Br3287   1.942       .  S
C3291      C3292   1.407       .  A
C3291      C3296   1.409       .  A
C3291     Br3298   1.914       .  S
C3292      C3293   1.408       .  A
C3293      C3294   1.416       .  A
C3293     Br3300   1.911       .  S
C3294      C3295   1.412       .  A
C3294     Br3299   1.927       .  S
C3295      C3296   1.414       .  A
C3296     Br3297   1.923       .  S
C3301      C3302   1.417       .  A
C3301      C3306   1.410       .  A
C3301     Br3308   1.935       .  S
C3302      C3303   1.414       .  A
C3303      C3304   1.409       .  A
C3303     Br3310   1.934       .  S
C3304      C3305   1.418       .  A
C3304     Br3309   1.940       .  S
C3305      C3306   1.416       .  A
C3306     Br3307   1.931       .  S
C3311      C3312   1.422       .  A
C3311      C3316   1.404       .  A
C3311     Br3318   1.937       .  S
C3312      C3313   1.417       .  A
C3313      C3314   1.402       .  A
C3313     Br3320   1.941       .  S
C3314      C3315   1.415       .  A
C3314     Br3319   1.936       .  S
C3315      C3316   1.408       .  A
C3316     Br3317   1.937       .  S
C3321      C3322   1.415       .  A
C3321      C3326   1.409       .  A
C3321     Br3328   1.918       .  S
C3322      C3323   1.414       .  A
C3323      C3324   1.424       .  A
C3323     Br3330   1.914       .  S
C3324      C3325   1.414       .  A
C3324     Br3329   1.922       .  S
C3325      C3326   1.412       .  A
C3326     Br3327   1.924       .  S
C3331      C3332   1.409       .  A
C3331      C3336   1.420       .  A
C3331     Br3338   1.904   1_554  S
C3332      C3333   1.414       .  A
C3333      C3334   1.419       .  A
C3333     Br3340   1.933       .  S
C3334      C3335   1.425       .  A
C3334     Br3339   1.932       .  S
C3335      C3336   1.419       .  A
C3336     Br3337   1.929       .  S
C3341      C3342   1.419       .  A
C3341      C3346   1.423       .  A
C3341     Br3348   1.929       .  S
C3342      C3343   1.411       .  A
C3343      C3344   1.417       .  A
C3343     Br3350   1.921       .  S
C3344      C3345   1.427       .  A
C3344     Br3349   1.935       .  S
C3345      C3346   1.411       .  A
C3346     Br3347   1.915       .  S
C3351      C3352   1.424       .  A
C3351      C3356   1.418       .  A
C3351     Br3358   1.930       .  S
C3352      C3353   1.406       .  A
C3353      C3354   1.412       .  A
C3353     Br3360   1.940       .  S
C3354      C3355   1.420       .  A
C3354     Br3359   1.901   1_655  S
C3355      C3356   1.413       .  A
C3356     Br3357   1.934       .  S
C3361      C3362   1.424       .  A
C3361      C3366   1.407       .  A
C3361     Br3368   1.939       .  S
C3362      C3363   1.416       .  A
C3363      C3364   1.410       .  A
C3363     Br3370   1.932       .  S
C3364      C3365   1.409       .  A
C3364     Br3369   1.923       .  S
C3365      C3366   1.413       .  A
C3366     Br3367   1.937       .  S
C3371      C3372   1.412       .  A
C3371      C3376   1.418       .  A
C3371     Br3378   1.921       .  S
C3372      C3373   1.400       .  A
C3373      C3374   1.416       .  A
C3373     Br3380   1.937       .  S
C3374      C3375   1.434       .  A
C3374     Br3379   1.916       .  S
C3375      C3376   1.412       .  A
C3376     Br3377   1.915       .  S
C3381      C3382   1.414       .  A
C3381      C3386   1.409       .  A
C3381     Br3388   1.934       .  S
C3382      C3383   1.410       .  A
C3383      C3384   1.420       .  A
C3383     Br3390   1.931       .  S
C3384      C3385   1.427       .  A
C3384     Br3389   1.933       .  S
C3385      C3386   1.424       .  A
C3386     Br3387   1.940       .  S
C3391      C3392   1.428       .  A
C3391      C3396   1.416       .  A
C3391     Br3398   1.935       .  S
C3392      C3393   1.407       .  A
C3393      C3394   1.426       .  A
C3393     Br3400   1.929       .  S
C3394      C3395   1.426       .  A
C3394     Br3399   1.911       .  S
C3395      C3396   1.412       .  A
C3396     Br3397   1.933       .  S
C3401      C3402   1.422       .  A
C3401      C3406   1.417       .  A
C3401     Br3408   1.928       .  S
C3402      C3403   1.422       .  A
C3403      C3404   1.427       .  A
C3403     Br3410   1.939       .  S
C3404      C3405   1.429       .  A
C3404     Br3409   1.935       .  S
C3405      C3406   1.407       .  A
C3406     Br3407   1.919       .  S
C3411      C3412   1.414       .  A
C3411      C3416   1.420       .  A
C3411     Br3418   1.928       .  S
C3412      C3413   1.412       .  A
C3413      C3414   1.401       .  A
C3413     Br3420   1.934       .  S
C3414      C3415   1.424       .  A
C3414     Br3419   1.947       .  S
C3415      C3416   1.423       .  A
C3416     Br3417   1.932       .  S
C3421      C3422   1.410       .  A
C3421      C3426   1.411       .  A
C3421     Br3428   1.933       .  S
C3422      C3423   1.417       .  A
C3423      C3424   1.416       .  A
C3423     Br3430   1.935       .  S
C3424      C3425   1.418       .  A
C3424     Br3429   1.923       .  S
C3425      C3426   1.423       .  A
C3426     Br3427   1.930       .  S
C3431      C3432   1.423       .  A
C3431      C3436   1.422       .  A
C3431     Br3438   1.931       .  S
C3432      C3433   1.417       .  A
C3433      C3434   1.405       .  A
C3433     Br3440   1.944       .  S
C3434      C3435   1.419       .  A
C3434     Br3439   1.930       .  S
C3435      C3436   1.414       .  A
C3436     Br3437   1.932       .  S
C3441      C3442   1.408       .  A
C3441      C3446   1.411       .  A
C3441     Br3448   1.931       .  S
C3442      C3443   1.408       .  A
C3443      C3444   1.400       .  A
C3443     Br3450   1.921       .  S
C3444      C3445   1.412       .  A
C3444     Br3449   1.937       .  S
C3445      C3446   1.414       .  A
C3446     Br3447   1.922       .  S
C3451      C3452   1.409       .  A
C3451      C3456   1.406       .  A
C3451     Br3458   1.936       .  S
C3452      C3453   1.410       .  A
C3453      C3454   1.411       .  A
C3453     Br3460   1.932       .  S
C3454      C3455   1.417       .  A
C3454     Br3459   1.930       .  S
C3455      C3456   1.422       .  A
C3456     Br3457   1.933       .  S
C3461      C3462   1.416       .  A
C3461      C3466   1.409       .  A
C3461     Br3468   1.930       .  S
C3462      C3463   1.417       .  A
C3463      C3464   1.393       .  A
C3463     Br3470   1.937       .  S
C3464      C3465   1.411       .  A
C3464     Br3469   1.938       .  S
C3465      C3466   1.407       .  A
C3466     Br3467   1.929       .  S
C3471      C3472   1.415       .  A
C3471      C3476   1.405       .  A
C3471     Br3478   1.940       .  S
C3472      C3473   1.417       .  A
C3473      C3474   1.421       .  A
C3473     Br3480   1.938       .  S
C3474      C3475   1.431       .  A
C3474     Br3479   1.938       .  S
C3475      C3476   1.422       .  A
C3476     Br3477   1.938       .  S
C3481      C3482   1.409       .  A
C3481      C3486   1.413       .  A
C3481     Br3488   1.928       .  S
C3482      C3483   1.402       .  A
C3483      C3484   1.403       .  A
C3483     Br3490   1.939       .  S
C3484      C3485   1.428       .  A
C3484     Br3489   1.934       .  S
C3485      C3486   1.421       .  A
C3486     Br3487   1.932       .  S
C3491      C3492   1.416       .  A
C3491      C3496   1.412       .  A
C3491     Br3498   1.917   1_455  S
C3492      C3493   1.412       .  A
C3493      C3494   1.411       .  A
C3493     Br3500   1.933       .  S
C3494      C3495   1.415       .  A
C3494     Br3499   1.926       .  S
C3495      C3496   1.410       .  A
C3496     Br3497   1.925       .  S
C3501      C3502   1.430       .  A
C3501      C3506   1.428       .  A
C3501     Br3508   1.926       .  S
C3502      C3503   1.420       .  A
C3503      C3504   1.424       .  A
C3503     Br3510   1.933       .  S
C3504      C3505   1.422       .  A
C3504     Br3509   1.916       .  S
C3505      C3506   1.417       .  A
C3506     Br3507   1.934       .  S
C3511      C3512   1.397       .  A
C3511      C3516   1.387       .  A
C3511     Br3518   1.924       .  S
C3512      C3513   1.415       .  A
C3513      C3514   1.415       .  A
C3513     Br3520   1.924       .  S
C3514      C3515   1.412       .  A
C3514     Br3519   1.928       .  S
C3515      C3516   1.419       .  A
C3516     Br3517   1.925       .  S
C3521      C3522   1.432       .  A
C3521      C3526   1.405       .  A
C3521     Br3528   1.944       .  S
C3522      C3523   1.423       .  A
C3523      C3524   1.417       .  A
C3523     Br3530   1.932       .  S
C3524      C3525   1.407       .  A
C3524     Br3529   1.923       .  S
C3525      C3526   1.401       .  A
C3526     Br3527   1.928       .  S
C3531      C3532   1.416       .  A
C3531      C3536   1.430       .  A
C3531     Br3538   1.923       .  S
C3532      C3533   1.412       .  A
C3533      C3534   1.405       .  A
C3533     Br3540   1.932       .  S
C3534      C3535   1.430       .  A
C3534     Br3539   1.949       .  S
C3535      C3536   1.423       .  A
C3536     Br3537   1.926       .  S
C3541      C3542   1.412       .  A
C3541      C3546   1.425       .  A
C3541     Br3548   1.919       .  S
C3542      C3543   1.408       .  A
C3543      C3544   1.404       .  A
C3543     Br3550   1.923       .  S
C3544      C3545   1.414       .  A
C3544     Br3549   1.922       .  S
C3545      C3546   1.418       .  A
C3546     Br3547   1.922       .  S
C3551      C3552   1.420       .  A
C3551      C3556   1.432       .  A
C3551     Br3558   1.923       .  S
C3552      C3553   1.410       .  A
C3553      C3554   1.411       .  A
C3553     Br3560   1.924       .  S
C3554      C3555   1.417       .  A
C3554     Br3559   1.914       .  S
C3555      C3556   1.417       .  A
C3556     Br3557   1.925       .  S
C3561      C3562   1.418       .  A
C3561      C3566   1.410       .  A
C3561     Br3568   1.936       .  S
C3562      C3563   1.420       .  A
C3563      C3564   1.423       .  A
C3563     Br3570   1.934       .  S
C3564      C3565   1.424       .  A
C3564     Br3569   1.930       .  S
C3565      C3566   1.419       .  A
C3566     Br3567   1.927       .  S
C3571      C3572   1.425       .  A
C3571      C3576   1.425       .  A
C3571     Br3578   1.940       .  S
C3572      C3573   1.422       .  A
C3573      C3574   1.424       .  A
C3573     Br3580   1.933       .  S
C3574      C3575   1.424       .  A
C3574     Br3579   1.925       .  S
C3575      C3576   1.428       .  A
C3576     Br3577   1.938       .  S
C3581      C3582   1.416       .  A
C3581      C3586   1.419       .  A
C3581     Br3588   1.931       .  S
C3582      C3583   1.414       .  A
C3583      C3584   1.410       .  A
C3583     Br3590   1.937       .  S
C3584      C3585   1.418       .  A
C3584     Br3589   1.935       .  S
C3585      C3586   1.417       .  A
C3586     Br3587   1.921       .  S
C3591      C3592   1.426       .  A
C3591      C3596   1.410       .  A
C3591     Br3598   1.933       .  S
C3592      C3593   1.425       .  A
C3593      C3594   1.423       .  A
C3593     Br3600   1.935       .  S
C3594      C3595   1.420       .  A
C3594     Br3599   1.928       .  S
C3595      C3596   1.417       .  A
C3596     Br3597   1.940       .  S
C3601      C3602   1.399       .  A
C3601      C3606   1.406       .  A
C3601     Br3608   1.917       .  S
C3602      C3603   1.423       .  A
C3603      C3604   1.408       .  A
C3603     Br3610   1.922       .  S
C3604      C3605   1.403       .  A
C3604     Br3609   1.932       .  S
C3605      C3606   1.424       .  A
C3606     Br3607   1.931       .  S
C3611      C3612   1.408       .  A
C3611      C3616   1.418       .  A
C3611     Br3618   1.925       .  S
C3612      C3613   1.426       .  A
C3613      C3614   1.409       .  A
C3613     Br3620   1.912       .  S
C3614      C3615   1.405       .  A
C3614     Br3619   1.947       .  S
C3615      C3616   1.423       .  A
C3616     Br3617   1.922       .  S
C3621      C3622   1.410       .  A
C3621      C3626   1.408       .  A
C3621     Br3628   1.936       .  S
C3622      C3623   1.421       .  A
C3623      C3624   1.419       .  A
C3623     Br3630   1.920       .  S
C3624      C3625   1.417       .  A
C3624     Br3629   1.934       .  S
C3625      C3626   1.426       .  A
C3626     Br3627   1.932       .  S
C3631      C3632   1.423       .  A
C3631      C3636   1.412       .  A
C3631     Br3638   1.939       .  S
C3632      C3633   1.417       .  A
C3633      C3634   1.414       .  A
C3633     Br3640   1.927       .  S
C3634      C3635   1.411       .  A
C3634     Br3639   1.930       .  S
C3635      C3636   1.419       .  A
C3636     Br3637   1.937       .  S
C3641      C3642   1.415       .  A
C3641      C3646   1.410       .  A
C3641     Br3648   1.925       .  S
C3642      C3643   1.410       .  A
C3643      C3644   1.416       .  A
C3643     Br3650   1.927       .  S
C3644      C3645   1.410       .  A
C3644     Br3649   1.918       .  S
C3645      C3646   1.409       .  A
C3646     Br3647   1.929       .  S
C3651      C3652   1.409       .  A
C3651      C3656   1.394       .  A
C3651     Br3658   1.925       .  S
C3652      C3653   1.415       .  A
C3653      C3654   1.406       .  A
C3653     Br3660   1.924       .  S
C3654      C3655   1.409       .  A
C3654     Br3659   1.931       .  S
C3655      C3656   1.397       .  A
C3656     Br3657   1.906   1_545  S
C3661      C3662   1.423       .  A
C3661      C3666   1.421       .  A
C3661     Br3668   1.928       .  S
C3662      C3663   1.412       .  A
C3663      C3664   1.407       .  A
C3663     Br3670   1.911       .  S
C3664      C3665   1.401       .  A
C3664     Br3669   1.922       .  S
C3665      C3666   1.409       .  A
C3666     Br3667   1.928       .  S
C3671      C3672   1.411       .  A
C3671      C3676   1.410       .  A
C3671     Br3678   1.919       .  S
C3672      C3673   1.408       .  A
C3673      C3674   1.412       .  A
C3673     Br3680   1.937       .  S
C3674      C3675   1.424       .  A
C3674     Br3679   1.919       .  S
C3675      C3676   1.404       .  A
C3676     Br3677   1.927       .  S
C3681      C3682   1.414       .  A
C3681      C3686   1.413       .  A
C3681     Br3688   1.928       .  S
C3682      C3683   1.402       .  A
C3683      C3684   1.405       .  A
C3683     Br3690   1.922       .  S
C3684      C3685   1.418       .  A
C3684     Br3689   1.929       .  S
C3685      C3686   1.417       .  A
C3686     Br3687   1.933       .  S
C3691      C3692   1.419       .  A
C3691      C3696   1.410       .  A
C3691     Br3698   1.933       .  S
C3692      C3693   1.421       .  A
C3693      C3694   1.411       .  A
C3693     Br3700   1.935       .  S
C3694      C3695   1.417       .  A
C3694     Br3699   1.931       .  S
C3695      C3696   1.408       .  A
C3696     Br3697   1.917       .  S
C3701      C3702   1.417       .  A
C3701      C3706   1.410       .  A
C3701     Br3708   1.934       .  S
C3702      C3703   1.401       .  A
C3703      C3704   1.407       .  A
C3703     Br3710   1.918       .  S
C3704      C3705   1.423       .  A
C3704     Br3709   1.932       .  S
C3705      C3706   1.418       .  A
C3706     Br3707   1.938       .  S
C3711      C3712   1.406       .  A
C3711      C3716   1.393       .  A
C3711     Br3718   1.933       .  S
C3712      C3713   1.414       .  A
C3713      C3714   1.417       .  A
C3713     Br3720   1.928       .  S
C3714      C3715   1.416       .  A
C3714     Br3719   1.927       .  S
C3715      C3716   1.423       .  A
C3716     Br3717   1.945       .  S
C3721      C3722   1.406       .  A
C3721      C3726   1.403       .  A
C3721     Br3728   1.917       .  S
C3722      C3723   1.405       .  A
C3723      C3724   1.412       .  A
C3723     Br3730   1.918       .  S
C3724      C3725   1.413       .  A
C3724     Br3729   1.927       .  S
C3725      C3726   1.409       .  A
C3726     Br3727   1.929       .  S
C3731      C3732   1.422       .  A
C3731      C3736   1.412       .  A
C3731     Br3738   1.939       .  S
C3732      C3733   1.410       .  A
C3733      C3734   1.415       .  A
C3733     Br3740   1.921       .  S
C3734      C3735   1.423       .  A
C3734     Br3739   1.935       .  S
C3735      C3736   1.418       .  A
C3736     Br3737   1.936   1_554  S
C3741      C3742   1.417       .  A
C3741      C3746   1.424       .  A
C3741     Br3748   1.929       .  S
C3742      C3743   1.413       .  A
C3743      C3744   1.408       .  A
C3743     Br3750   1.942       .  S
C3744      C3745   1.425       .  A
C3744     Br3749   1.927       .  S
C3745      C3746   1.421       .  A
C3746     Br3747   1.922       .  S
C3751      C3752   1.422       .  A
C3751      C3756   1.422       .  A
C3751     Br3758   1.933       .  S
C3752      C3753   1.420       .  A
C3753      C3754   1.408       .  A
C3753     Br3760   1.932   1_556  S
C3754      C3755   1.415       .  A
C3754     Br3759   1.935       .  S
C3755      C3756   1.418       .  A
C3756     Br3757   1.926       .  S
C3761      C3762   1.424       .  A
C3761      C3766   1.407       .  A
C3761     Br3768   1.925       .  S
C3762      C3763   1.412       .  A
C3763      C3764   1.409       .  A
C3763     Br3770   1.932       .  S
C3764      C3765   1.409       .  A
C3764     Br3769   1.921       .  S
C3765      C3766   1.411       .  A
C3766     Br3767   1.936       .  S
C3771      C3772   1.415       .  A
C3771      C3776   1.420       .  A
C3771     Br3778   1.924       .  S
C3772      C3773   1.411       .  A
C3773      C3774   1.421       .  A
C3773     Br3780   1.925       .  S
C3774      C3775   1.427       .  A
C3774     Br3779   1.934       .  S
C3775      C3776   1.431       .  A
C3776     Br3777   1.943       .  S
C3781      C3782   1.422       .  A
C3781      C3786   1.411       .  A
C3781     Br3788   1.917       .  S
C3782      C3783   1.414       .  A
C3783      C3784   1.423       .  A
C3783     Br3790   1.910       .  S
C3784      C3785   1.413       .  A
C3784     Br3789   1.919       .  S
C3785      C3786   1.405       .  A
C3786     Br3787   1.926       .  S
C3791      C3792   1.422       .  A
C3791      C3796   1.415       .  A
C3791     Br3798   1.938   1_554  S
C3792      C3793   1.424       .  A
C3793      C3794   1.414       .  A
C3793     Br3800   1.937       .  S
C3794      C3795   1.413       .  A
C3794     Br3799   1.925       .  S
C3795      C3796   1.421       .  A
C3796     Br3797   1.939       .  S
C3801      C3802   1.421       .  A
C3801      C3806   1.417       .  A
C3801     Br3808   1.938       .  S
C3802      C3803   1.418       .  A
C3803      C3804   1.410       .  A
C3803     Br3810   1.922       .  S
C3804      C3805   1.412       .  A
C3804     Br3809   1.934       .  S
C3805      C3806   1.421       .  A
C3806     Br3807   1.932       .  S
C3811      C3812   1.417       .  A
C3811      C3816   1.423       .  A
C3811     Br3818   1.926       .  S
C3812      C3813   1.418       .  A
C3813      C3814   1.399       .  A
C3813     Br3820   1.933       .  S
C3814      C3815   1.412       .  A
C3814     Br3819   1.942       .  S
C3815      C3816   1.414       .  A
C3816     Br3817   1.925       .  S
C3821      C3822   1.412       .  A
C3821      C3826   1.412       .  A
C3821     Br3828   1.919       .  S
C3822      C3823   1.407       .  A
C3823      C3824   1.413       .  A
C3823     Br3830   1.932       .  S
C3824      C3825   1.428       .  A
C3824     Br3829   1.923       .  S
C3825      C3826   1.407       .  A
C3826     Br3827   1.920       .  S
C3831      C3832   1.424       .  A
C3831      C3836   1.415       .  A
C3831     Br3838   1.926       .  S
C3832      C3833   1.415       .  A
C3833      C3834   1.415       .  A
C3833     Br3840   1.935       .  S
C3834      C3835   1.416       .  A
C3834     Br3839   1.926       .  S
C3835      C3836   1.410       .  A
C3836     Br3837   1.932       .  S
C3841      C3842   1.418       .  A
C3841      C3846   1.413       .  A
C3841     Br3848   1.934       .  S
C3842      C3843   1.418       .  A
C3843      C3844   1.402       .  A
C3843     Br3850   1.935       .  S
C3844      C3845   1.414       .  A
C3844     Br3849   1.942       .  S
C3845      C3846   1.416       .  A
C3846     Br3847   1.935       .  S
C3851      C3852   1.409       .  A
C3851      C3856   1.407       .  A
C3851     Br3858   1.919       .  S
C3852      C3853   1.409       .  A
C3853      C3854   1.420       .  A
C3853     Br3860   1.915       .  S
C3854      C3855   1.414       .  A
C3854     Br3859   1.920       .  S
C3855      C3856   1.417       .  A
C3856     Br3857   1.939       .  S
C3861      C3862   1.414       .  A
C3861      C3866   1.414       .  A
C3861     Br3868   1.925       .  S
C3862      C3863   1.409       .  A
C3863      C3864   1.402       .  A
C3863     Br3870   1.923       .  S
C3864      C3865   1.415       .  A
C3864     Br3869   1.942       .  S
C3865      C3866   1.409       .  A
C3866     Br3867   1.927       .  S
C3871      C3872   1.422       .  A
C3871      C3876   1.413       .  A
C3871     Br3878   1.933       .  S
C3872      C3873   1.423       .  A
C3873      C3874   1.412       .  A
C3873     Br3880   1.936   1_455  S
C3874      C3875   1.411       .  A
C3874     Br3879   1.927       .  S
C3875      C3876   1.411       .  A
C3876     Br3877   1.924       .  S
C3881      C3882   1.423       .  A
C3881      C3886   1.426       .  A
C3881     Br3888   1.927       .  S
C3882      C3883   1.419       .  A
C3883      C3884   1.418       .  A
C3883     Br3890   1.937       .  S
C3884      C3885   1.423       .  A
C3884     Br3889   1.931       .  S
C3885      C3886   1.416       .  A
C3886     Br3887   1.925       .  S
C3891      C3892   1.422       .  A
C3891      C3896   1.420       .  A
C3891     Br3898   1.928       .  S
C3892      C3893   1.417       .  A
C3893      C3894   1.412       .  A
C3893     Br3900   1.935       .  S
C3894      C3895   1.422       .  A
C3894     Br3899   1.938       .  S
C3895      C3896   1.415       .  A
C3896     Br3897   1.933       .  S
C3901      C3902   1.400       .  A
C3901      C3906   1.398       .  A
C3901     Br3908   1.907       .  S
C3902      C3903   1.399       .  A
C3903      C3904   1.393       .  A
C3903     Br3910   1.934       .  S
C3904      C3905   1.411       .  A
C3904     Br3909   1.926       .  S
C3905      C3906   1.403       .  A
C3906     Br3907   1.929       .  S
C3911      C3912   1.415       .  A
C3911      C3916   1.421       .  A
C3911     Br3918   1.923       .  S
C3912      C3913   1.402       .  A
C3913      C3914   1.395       .  A
C3913     Br3920   1.918       .  S
C3914      C3915   1.417       .  A
C3914     Br3919   1.935       .  S
C3915      C3916   1.418       .  A
C3916     Br3917   1.929       .  S
C3921      C3922   1.430       .  A
C3921      C3926   1.427       .  A
C3921     Br3928   1.933       .  S
C3922      C3923   1.421       .  A
C3923      C3924   1.399       .  A
C3923     Br3930   1.940       .  S
C3924      C3925   1.420       .  A
C3924     Br3929   1.939       .  S
C3925      C3926   1.420       .  A
C3926     Br3927   1.930       .  S
C3931      C3932   1.408       .  A
C3931      C3936   1.413       .  A
C3931     Br3938   1.905       .  S
C3932      C3933   1.414       .  A
C3933      C3934   1.418       .  A
C3933     Br3940   1.941       .  S
C3934      C3935   1.428       .  A
C3934     Br3939   1.926       .  S
C3935      C3936   1.417       .  A
C3936     Br3937   1.930       .  S
C3941      C3942   1.429       .  A
C3941      C3946   1.402       .  A
C3941     Br3948   1.926       .  S
C3942      C3943   1.424       .  A
C3943      C3944   1.416       .  A
C3943     Br3950   1.937       .  S
C3944      C3945   1.409       .  A
C3944     Br3949   1.907       .  S
C3945      C3946   1.405       .  A
C3946     Br3947   1.934       .  S
C3951      C3952   1.408       .  A
C3951      C3956   1.401       .  A
C3951     Br3958   1.944       .  S
C3952      C3953   1.425       .  A
C3953      C3954   1.420       .  A
C3953     Br3960   1.935       .  S
C3954      C3955   1.413       .  A
C3954     Br3959   1.924       .  S
C3955      C3956   1.410       .  A
C3956     Br3957   1.917       .  S
C3961      C3962   1.414       .  A
C3961      C3966   1.415       .  A
C3961     Br3968   1.902       .  S
C3962      C3963   1.417       .  A
C3963      C3964   1.427       .  A
C3963     Br3970   1.929       .  S
C3964      C3965   1.423       .  A
C3964     Br3969   1.931       .  S
C3965      C3966   1.414       .  A
C3966     Br3967   1.930       .  S
C3971      C3972   1.413       .  A
C3971      C3976   1.397       .  A
C3971     Br3978   1.940       .  S
C3972      C3973   1.413       .  A
C3973      C3974   1.420       .  A
C3973     Br3980   1.925       .  S
C3974      C3975   1.418       .  A
C3974     Br3979   1.919       .  S
C3975      C3976   1.421       .  A
C3976     Br3977   1.941       .  S
C3981      C3982   1.415       .  A
C3981      C3986   1.414       .  A
C3981     Br3988   1.923       .  S
C3982      C3983   1.419       .  A
C3983      C3984   1.404       .  A
C3983     Br3990   1.935       .  S
C3984      C3985   1.409       .  A
C3984     Br3989   1.934       .  S
C3985      C3986   1.410       .  A
C3986     Br3987   1.923       .  S
C3991      C3992   1.419       .  A
C3991      C3996   1.411       .  A
C3991     Br3998   1.932   1_565  S
C3992      C3993   1.422       .  A
C3993      C3994   1.416       .  A
C3993     Br4000   1.936       .  S
C3994      C3995   1.418       .  A
C3994     Br3999   1.934       .  S
C3995      C3996   1.414       .  A
C3996     Br3997   1.934       .  S
C4001      C4002   1.411       .  A
C4001      C4006   1.401       .  A
C4001     Br4008   1.923       .  S
C4002      C4003   1.419       .  A
C4003      C4004   1.420       .  A
C4003     Br4010   1.927       .  S
C4004      C4005   1.411       .  A
C4004     Br4009   1.927       .  S
C4005      C4006   1.408       .  A
C4006     Br4007   1.923       .  S
C4011      C4012   1.411       .  A
C4011      C4016   1.422       .  A
C4011     Br4018   1.921   1_565  S
C4012      C4013   1.412       .  A
C4013      C4014   1.412       .  A
C4013     Br4020   1.935       .  S
C4014      C4015   1.427       .  A
C4014     Br4019   1.935       .  S
C4015      C4016   1.417       .  A
C4016     Br4017   1.927       .  S
C4021      C4022   1.418       .  A
C4021      C4026   1.425       .  A
C4021     Br4028   1.930       .  S
C4022      C4023   1.411       .  A
C4023      C4024   1.412       .  A
C4023     Br4030   1.914       .  S
C4024      C4025   1.410       .  A
C4024     Br4029   1.924       .  S
C4025      C4026   1.425       .  A
C4026     Br4027   1.925       .  S
C4031      C4032   1.413       .  A
C4031      C4036   1.418       .  A
C4031     Br4038   1.921       .  S
C4032      C4033   1.413       .  A
C4033      C4034   1.394       .  A
C4033     Br4040   1.922       .  S
C4034      C4035   1.394       .  A
C4034     Br4039   1.918       .  S
C4035      C4036   1.409       .  A
C4036     Br4037   1.923       .  S
C4041      C4042   1.418       .  A
C4041      C4046   1.414       .  A
C4041     Br4048   1.932       .  S
C4042      C4043   1.412       .  A
C4043      C4044   1.413       .  A
C4043     Br4050   1.922       .  S
C4044      C4045   1.420       .  A
C4044     Br4049   1.934       .  S
C4045      C4046   1.421       .  A
C4046     Br4047   1.939       .  S
C4051      C4052   1.413       .  A
C4051      C4056   1.392       .  A
C4051     Br4058   1.925       .  S
C4052      C4053   1.417       .  A
C4053      C4054   1.426       .  A
C4053     Br4060   1.927       .  S
C4054      C4055   1.417       .  A
C4054     Br4059   1.919       .  S
C4055      C4056   1.403       .  A
C4056     Br4057   1.926       .  S
C4061      C4062   1.420       .  A
C4061      C4066   1.428       .  A
C4061     Br4068   1.927       .  S
C4062      C4063   1.412       .  A
C4063      C4064   1.412       .  A
C4063     Br4070   1.945       .  S
C4064      C4065   1.439       .  A
C4064     Br4069   1.947       .  S
C4065      C4066   1.420       .  A
C4066     Br4067   1.928       .  S
C4071      C4072   1.420       .  A
C4071      C4076   1.396       .  A
C4071     Br4078   1.947       .  S
C4072      C4073   1.426       .  A
C4073      C4074   1.424       .  A
C4073     Br4080   1.930       .  S
C4074      C4075   1.410       .  A
C4074     Br4079   1.926       .  S
C4075      C4076   1.399       .  A
C4076     Br4077   1.900       .  S
C4081      C4082   1.414       .  A
C4081      C4086   1.415       .  A
C4081     Br4088   1.936       .  S
C4082      C4083   1.413       .  A
C4083      C4084   1.412       .  A
C4083     Br4090   1.903       .  S
C4084      C4085   1.402       .  A
C4084     Br4089   1.919       .  S
C4085      C4086   1.418       .  A
C4086     Br4087   1.921       .  S
C4091      C4092   1.411       .  A
C4091      C4096   1.414       .  A
C4091     Br4098   1.920       .  S
C4092      C4093   1.399       .  A
C4093      C4094   1.382       .  A
C4093     Br4100   1.922       .  S
C4094      C4095   1.402       .  A
C4094     Br4099   1.919       .  S
C4095      C4096   1.414       .  A
C4096     Br4097   1.928       .  S
C4101      C4102   1.409       .  A
C4101      C4106   1.408       .  A
C4101     Br4108   1.925       .  S
C4102      C4103   1.409       .  A
C4103      C4104   1.403       .  A
C4103     Br4110   1.926       .  S
C4104      C4105   1.409       .  A
C4104     Br4109   1.923       .  S
C4105      C4106   1.405       .  A
C4106     Br4107   1.916       .  S
C4111      C4112   1.410       .  A
C4111      C4116   1.416       .  A
C4111     Br4118   1.922       .  S
C4112      C4113   1.424       .  A
C4113      C4114   1.420       .  A
C4113     Br4120   1.936       .  S
C4114      C4115   1.419       .  A
C4114     Br4119   1.932       .  S
C4115      C4116   1.418       .  A
C4116     Br4117   1.919       .  S
C4121      C4122   1.408       .  A
C4121      C4126   1.406       .  A
C4121     Br4128   1.933       .  S
C4122      C4123   1.420       .  A
C4123      C4124   1.422       .  A
C4123     Br4130   1.921       .  S
C4124      C4125   1.415       .  A
C4124     Br4129   1.928       .  S
C4125      C4126   1.421       .  A
C4126     Br4127   1.919       .  S
C4131      C4132   1.419       .  A
C4131      C4136   1.422       .  A
C4131     Br4138   1.938       .  S
C4132      C4133   1.395       .  A
C4133      C4134   1.408       .  A
C4133     Br4140   1.929       .  S
C4134      C4135   1.430       .  A
C4134     Br4139   1.909       .  S
C4135      C4136   1.431       .  A
C4136     Br4137   1.935       .  S
