geometry optimzed in LAMMPS
_audit_creation_date              2020-11-30 
_audit_creation_method            'lammps2cif' 
_symmetry_space_group_name_H-M    'P1' 
_symmetry_Int_Tables_number       1 
_symmetry_cell_setting            triclinic 
loop_ 
_symmetry_equiv_pos_as_xyz 
  x,y,z 
_cell_length_a                    37.00049152 
_cell_length_b                    37.37996574142264 
_cell_length_c                    37.26263435613266 
_cell_angle_alpha                 90.20646714230833 
_cell_angle_beta                  89.44424004982992 
_cell_angle_gamma                 91.87526886576664 
loop_ 
_atom_site_label 
_atom_site_type_symbol 
_atom_site_fract_x 
_atom_site_fract_y 
_atom_site_fract_z 
_atom_site_charge 
C1          C  0.28758649  0.75008363  0.48511190     0.45200
H2          H  0.31723707  0.75334644  0.48783368    -0.03900
C3          C  0.21860653  0.74819792  0.47827077     0.45200
H4          H  0.19006770  0.75068126  0.47282486    -0.03900
C5          C  0.27606839  0.72965449  0.45102808    -0.17600
C6          C  0.26764989  0.72762986  0.51512930    -0.17300
C7          C  0.27124652  0.78733724  0.48408193    -0.17700
C8          C  0.23868461  0.72933402  0.44709982    -0.17700
C9          C  0.22971415  0.72721070  0.51188813    -0.17200
C10         C  0.23455599  0.78606016  0.48259225    -0.17600
C11         C  0.71533205  0.72686999  0.99313755     0.45200
H12         H  0.68575980  0.72716020  0.98814378    -0.03900
C13         C  0.78390138  0.72744688  0.00527536     0.45200
H14         H  0.81353160  0.72742936  0.00928222    -0.03900
C15         C  0.73368068  0.76425840  0.99108822    -0.17600
C16         C  0.72414758  0.71207061  0.03035415    -0.17300
C17         C  0.73576956  0.70248155  0.96699869    -0.17700
C18         C  0.77010597  0.76517516  0.99740156    -0.17700
C19         C  0.76095852  0.71138259  0.03693660    -0.17200
C20         C  0.77254708  0.70358049  0.97316740    -0.17600
C21         C  0.21764822  0.50262331  0.27527028     0.45200
H22         H  0.21677541  0.51104157  0.30391240    -0.03900
C23         C  0.22163168  0.48295607  0.20887745     0.45200
H24         H  0.22478061  0.47500239  0.18048298    -0.03900
C25         C  0.25592565  0.50271875  0.26091643    -0.17600
C26         C  0.20200810  0.46494597  0.26927792    -0.17300
C27         C  0.19604121  0.52634853  0.25027283    -0.17700
C28         C  0.25892797  0.49240329  0.22582178    -0.17700
C29         C  0.20255344  0.45407704  0.23376672    -0.17200
C30         C  0.19864558  0.51662714  0.21443612    -0.17600
C31         C  0.50450543  0.22861023  0.23442418     0.45200
H32         H  0.50159130  0.19895387  0.23451384    -0.03900
C33         C  0.50700183  0.29706990  0.23659479     0.45200
H34         H  0.50609231  0.32618228  0.23596725    -0.03900
C35         C  0.49855343  0.24419358  0.27217015    -0.17600
C36         C  0.54133030  0.24399240  0.22084252    -0.17300
C37         C  0.47694191  0.24505940  0.20936268    -0.17700
C38         C  0.49723227  0.28079221  0.27364478    -0.17700
C39         C  0.54368189  0.28144430  0.22370484    -0.17200
C40         C  0.47892995  0.28177935  0.21027095    -0.17600
C41         C  0.27831245  0.21635574  0.50038701     0.45200
H42         H  0.30829253  0.21609827  0.49823547    -0.03900
C43         C  0.20909306  0.21884757  0.50346452     0.45200
H44         H  0.17923996  0.22015759  0.50234041    -0.03900
C45         C  0.26417021  0.25427882  0.49505167    -0.17600
C46         C  0.26015963  0.19296595  0.47214586    -0.17300
C47         C  0.26234950  0.20119585  0.53609286    -0.17700
C48         C  0.22748261  0.25514634  0.49605238    -0.17700
C49         C  0.22303137  0.19241627  0.47513795    -0.17200
C50         C  0.22548724  0.20684081  0.53967055    -0.17600
C51         C  0.72010404  0.49286992  0.29846290     0.45200
H52         H  0.72213742  0.48576873  0.32683553    -0.03900
C53         C  0.72019896  0.50620701  0.23069334     0.45200
H54         H  0.72087549  0.51143546  0.20134610    -0.03900
C55         C  0.70316834  0.46162969  0.27542016    -0.17600
C56         C  0.69660570  0.52559318  0.28921453    -0.17300
C57         C  0.75857948  0.50174622  0.28367325    -0.17700
C58         C  0.70396715  0.46918105  0.23911893    -0.17700
C59         C  0.69602284  0.53177858  0.25219813    -0.17200
C60         C  0.75799237  0.50814445  0.24734999    -0.17600
C61         C  0.00177840  0.29946976  0.27763040     0.45200
H62         H  0.01002971  0.32809612  0.27597473    -0.03900
C63         C  0.98350349  0.23221510  0.28048285     0.45200
H64         H  0.97569650  0.20328675  0.28165330    -0.03900
C65         C  0.02924331  0.27697316  0.29811110    -0.17600
C66         C  0.96608404  0.29265249  0.29847415    -0.17300
C67         C  0.99637952  0.28171837  0.24052965    -0.17700
C68         C  0.01942205  0.24104679  0.29889648    -0.17700
C69         C  0.95627832  0.25665159  0.29941815    -0.17200
C70         C  0.98783115  0.24576841  0.24240946    -0.17600
C71         C  0.77695937  0.01834161  0.27971658     0.45200
H72         H  0.77972135  0.02414046  0.30885346    -0.03900
C73         C  0.76689704  0.00496769  0.21260691     0.45200
H74         H  0.75971165  0.99731687  0.18534473    -0.03900
C75         C  0.73726471  0.01651906  0.26825184    -0.17600
C76         C  0.79570349  0.04657444  0.25553884    -0.17300
C77         C  0.79371461  0.98316062  0.26776570    -0.17700
C78         C  0.73197322  0.00929067  0.23288413    -0.17700
C79         C  0.78916277  0.03993298  0.21908526    -0.17200
C80         C  0.78838537  0.97620507  0.23178016    -0.17600
C81         C  0.72580023  0.77940360  0.47835923     0.45200
H82         H  0.69874316  0.77240161  0.46895712    -0.03900
C83         C  0.79251049  0.78732831  0.49531048     0.45200
H84         H  0.82153439  0.79004411  0.50203352    -0.03900
C85         C  0.74740952  0.80220186  0.45087815    -0.17600
C86         C  0.73036589  0.80006478  0.51422837    -0.17300
C87         C  0.74483033  0.74450847  0.48319313    -0.17700
C88         C  0.78364313  0.80498692  0.45944916    -0.17700
C89         C  0.76723335  0.80616315  0.52250731    -0.17200
C90         C  0.77992172  0.74798419  0.49198034    -0.17600
C91         C  0.95338157  0.87505628  0.35207784     0.86200
C92         C  0.97590619  0.90170665  0.37577193    -0.54100
C93         C  0.95463570  0.92559597  0.39421280     0.09100
C94         C  0.91415041  0.92094170  0.38679044     0.20100
C95         C  0.92672911  0.85861842  0.37931578    -0.54800
C96         C  0.90495571  0.88205962  0.39684170     0.09200
C97         C  0.93157781  0.89885687  0.32798795    -0.54300
C98         C  0.91053366  0.92203064  0.34580874     0.09800
H99         H  0.00468320  0.89987831  0.38034669     0.14300
H100        H  0.89858056  0.94122026  0.40113288     0.00000
H101        H  0.92400727  0.82978163  0.38204472     0.14600
H102        H  0.93022361  0.89526522  0.29903908     0.14400
C103        C  0.85553350  0.12855144  0.43788642     0.86200
C104        C  0.84241481  0.10535704  0.40572558    -0.54100
C105        C  0.86705314  0.10097971  0.37863532     0.09100
C106        C  0.90606027  0.11318676  0.39064127     0.20100
C107        C  0.88580464  0.10606067  0.45361122    -0.54800
C108        C  0.91285031  0.09726148  0.42962638     0.09200
C109        C  0.87535373  0.16083326  0.42110147    -0.54300
C110        C  0.90156662  0.15372578  0.39711066     0.09800
H111        H  0.81481390  0.09556573  0.40249204     0.14300
H112        H  0.92730140  0.10714272  0.37055659     0.00000
H113        H  0.88627948  0.09793482  0.48148864     0.14600
H114        H  0.86629768  0.18799794  0.42511881     0.14400
C115        C  0.88433196  0.95453321  0.63501622     0.86200
C116        C  0.90971163  0.92806924  0.65256762    -0.54100
C117        C  0.92275742  0.90267323  0.63035047     0.09100
C118        C  0.91286190  0.90829921  0.59057402     0.20100
C119        C  0.90969183  0.97232749  0.60589458    -0.54800
C120        C  0.92551398  0.94826668  0.58255254     0.09200
C121        C  0.85714193  0.93103539  0.61410801    -0.54300
C122        C  0.87088018  0.90644091  0.59119607     0.09800
H123        H  0.91671181  0.92824940  0.68075666     0.14300
H124        H  0.92464235  0.88884478  0.57187850     0.00000
H125        H  0.91656328  0.00071112  0.60525774     0.14600
H126        H  0.82824900  0.93226099  0.61943059     0.14400
C127        C  0.11125099  0.05752803  0.34957430     0.86200
C128        C  0.08667536  0.04021375  0.37996117    -0.54100
C129        C  0.07213856  0.06526079  0.40368854     0.09100
C130        C  0.08425968  0.10432269  0.39412341     0.20100
C131        C  0.08579575  0.08447459  0.33225650    -0.54800
C132        C  0.07330683  0.10988302  0.35517130     0.09200
C133        C  0.13895557  0.07959709  0.37096082    -0.54300
C134        C  0.12542461  0.10503954  0.39181487     0.09800
H135        H  0.08093489  0.01165908  0.38212125     0.14300
H136        H  0.07415595  0.12506601  0.41269306     0.00000
H137        H  0.07988597  0.08494481  0.30385803     0.14600
H138        H  0.16791054  0.07541458  0.36955774     0.14400
C139        C  0.04935264  0.14116292  0.64353982     0.86200
C140        C  0.07425608  0.16405393  0.61854738    -0.54100
C141        C  0.10070304  0.14668238  0.60093214     0.09100
C142        C  0.09727969  0.10585767  0.60635738     0.20100
C143        C  0.03193206  0.11379710  0.61711920    -0.54800
C144        C  0.05649909  0.09492525  0.59696009     0.09200
C145        C  0.07419049  0.11840308  0.66598838    -0.54300
C146        C  0.10145617  0.10266626  0.64790869     0.09800
H147        H  0.07357959  0.19302993  0.61839638     0.14300
H148        H  0.11742284  0.09127789  0.59022793     0.00000
H149        H  0.00322246  0.11096850  0.61232770     0.14600
H150        H  0.07139336  0.11681116  0.69492134     0.14400
C151        C  0.14191751  0.88572018  0.55754261     0.86200
C152        C  0.11156929  0.90650928  0.53957141    -0.54100
C153        C  0.08533359  0.91832740  0.56289244     0.09100
C154        C  0.09153586  0.90636755  0.60250503     0.20100
C155        C  0.15539315  0.91197090  0.58659247    -0.54800
C156        C  0.12984038  0.92103839  0.61128328     0.09200
C157        C  0.12206873  0.85536113  0.57736332    -0.54300
C158        C  0.09631955  0.86525048  0.60095562     0.09800
H159        H  0.11101440  0.91244717  0.51111625     0.14300
H160        H  0.07040613  0.91457220  0.62191484     0.00000
H161        H  0.18306582  0.92188370  0.58865595     0.14600
H162        H  0.13016963  0.82770410  0.57506468     0.14400
O163        O  0.04668450  0.08426804  0.53321136    -0.81200
O164        O  0.97789417  0.97900021  0.42183245    -0.65900
O165        O  0.99001015  0.03983079  0.50444692    -1.12500
C166        C  0.05381168  0.93798059  0.54832540     1.05700
O167        O  0.95993165  0.93432680  0.45698014    -0.79100
O168        O  0.96131352  0.93439273  0.53085546    -0.66700
Ni169      Ni  0.00713632  0.08837516  0.49826421     1.34900
C170        C  0.95556605  0.95773359  0.55510022     0.84400
O171        O  0.95189135  0.04572765  0.43788978    -0.79600
O172        O  0.96662314  0.09753374  0.46596965    -0.89900
C173        C  0.96629899  0.94690661  0.42574534     0.84000
O174        O  0.04032523  0.08250846  0.45768981    -0.68100
O175        O  0.03417155  0.92003804  0.52633358    -0.87400
C176        C  0.04501129  0.05800194  0.43417385     0.84800
C177        C  0.94658356  0.07919184  0.44409081     1.06400
H178        H  0.03621677  0.97790194  0.47677838     0.38200
O179        O  0.01278368  0.97847657  0.48839236    -1.10100
O180        O  0.97507037  0.98707252  0.55720748    -0.66700
Ni181      Ni  0.01898011  0.00674902  0.53111570     1.26300
O182        O  0.02620787  0.02882205  0.43478023    -0.66900
O183        O  0.04976868  0.97163463  0.55464587    -0.79200
C184        C  0.04354884  0.07177106  0.56528982     0.84200
O185        O  0.02782902  0.04091254  0.57046519    -0.66400
Ni186      Ni  0.99662047  0.92955058  0.49271737     1.27400
Ni187      Ni  0.98355668  0.01130057  0.46181866     1.26100
H188        H  0.96664300  0.04092085  0.51626120     0.38800
C189        C  0.78050940  0.27663704  0.48842975     0.45200
H190        H  0.80971967  0.27559275  0.48180580    -0.03900
C191        C  0.71273935  0.27763115  0.50508364     0.45200
H192        H  0.68370521  0.27802324  0.51270428    -0.03900
C193        C  0.76225645  0.23918140  0.48875765    -0.17600
C194        C  0.77360595  0.29345759  0.52559991    -0.17300
C195        C  0.75859433  0.29976042  0.46238547    -0.17700
C196        C  0.72602883  0.23939771  0.49777856    -0.17700
C197        C  0.73720285  0.29569867  0.53385978    -0.17200
C198        C  0.72203779  0.29931808  0.47099456    -0.17600
C199        C  0.01270823  0.79096777  0.72586217     0.45200
H200        H  0.01929094  0.82008288  0.72482048    -0.03900
C201        C  0.99692747  0.72333872  0.72777631     0.45200
H202        H  0.99012068  0.69431279  0.72967586    -0.03900
C203        C  0.00703155  0.77660770  0.76427150    -0.17600
C204        C  0.97790654  0.78090615  0.70545754    -0.17300
C205        C  0.04155888  0.76779310  0.70738686    -0.17700
C206        C  0.99868200  0.74064297  0.76476377    -0.17700
C207        C  0.96955344  0.74477727  0.70657185    -0.17200
C208        C  0.03314093  0.73132293  0.70842997    -0.17600
C209        C  0.13467174  0.56540314  0.62778431     0.86200
C210        C  0.10592550  0.58786573  0.64650229    -0.54100
C211        C  0.09125785  0.61308854  0.62566488     0.09100
C212        C  0.10257308  0.61064078  0.58616354     0.20100
C213        C  0.11245947  0.54670212  0.59663881    -0.54800
C214        C  0.09463434  0.57052168  0.57457463     0.09200
C215        C  0.16024221  0.59135883  0.60741714    -0.54300
C216        C  0.14429947  0.61654244  0.58755542     0.09800
H217        H  0.10100887  0.58702249  0.67530431     0.14300
H218        H  0.08846661  0.63048932  0.56981857     0.00000
H219        H  0.10958791  0.51789831  0.59352551     0.14600
H220        H  0.18919867  0.58876364  0.60831859     0.14400
C221        C  0.13740839  0.37270943  0.45288866     0.86200
C222        C  0.15708869  0.39262693  0.42211936    -0.54100
C223        C  0.13541731  0.40955354  0.39910902     0.09100
C224        C  0.09524805  0.40725187  0.40977570     0.20100
C225        C  0.11654112  0.40292501  0.47206786    -0.54800
C226        C  0.09427234  0.42120439  0.44925111     0.09200
C227        C  0.10694956  0.34984191  0.43550617    -0.54300
C228        C  0.08632963  0.36677025  0.41160772     0.09800
H229        H  0.18611289  0.39140867  0.41757497     0.14300
H230        H  0.07729576  0.42139029  0.39121451     0.00000
H231        H  0.11746691  0.40885590  0.50045198     0.14600
H232        H  0.10529212  0.32084062  0.43813619     0.14400
C233        C  0.86264315  0.63954770  0.56299358     0.86200
C234        C  0.88434392  0.61015451  0.54347081    -0.54100
C235        C  0.90788311  0.59260823  0.56533738     0.09100
C236        C  0.90634587  0.60616473  0.60524624     0.20100
C237        C  0.84362648  0.61954615  0.59358906    -0.54800
C238        C  0.86585726  0.60362907  0.61673643     0.09200
C239        C  0.89218817  0.66333143  0.57952986    -0.54300
C240        C  0.91419945  0.64687904  0.60255705     0.09800
H241        H  0.88366403  0.60520733  0.51482560     0.14300
H242        H  0.92469989  0.59232027  0.62362598     0.00000
H243        H  0.81439450  0.61751318  0.59651165     0.14600
H244        H  0.89318196  0.69224516  0.57604250     0.14400
C245        C  0.87330238  0.46413500  0.37866655     0.86200
C246        C  0.89765307  0.47950940  0.40982049    -0.54100
C247        C  0.91131075  0.45376760  0.43249774     0.09100
C248        C  0.89813079  0.41498037  0.42161577     0.20100
C249        C  0.89630139  0.43573427  0.36017491    -0.54800
C250        C  0.90907224  0.41028441  0.38199091     0.09200
C251        C  0.84422875  0.44110851  0.39789614    -0.54300
C252        C  0.85630263  0.41553670  0.42018300     0.09800
H253        H  0.90430393  0.50784345  0.41276709     0.14300
H254        H  0.90836209  0.39356780  0.43897307     0.00000
H255        H  0.89856025  0.43187972  0.33161147     0.14600
H256        H  0.81580052  0.44222015  0.39102012     0.14400
C257        C  0.94486381  0.36803404  0.64028295     0.86200
C258        C  0.91802212  0.34538794  0.61753000    -0.54100
C259        C  0.89408326  0.36481810  0.59847639     0.09100
C260        C  0.89854317  0.40575216  0.60385058     0.20100
C261        C  0.96260911  0.39498736  0.61352218    -0.54800
C262        C  0.93888121  0.41491425  0.59390716     0.09200
C263        C  0.91919418  0.39011375  0.66310626    -0.54300
C264        C  0.89536898  0.40957879  0.64504566     0.09800
H265        H  0.91592438  0.31641107  0.61836722     0.14300
H266        H  0.87852193  0.42140543  0.58909766     0.00000
H267        H  0.99166304  0.39673627  0.60911993     0.14600
H268        H  0.91633695  0.38741902  0.69200095     0.14400
C269        C  0.06055274  0.64408436  0.36250132     0.86200
C270        C  0.04302067  0.62031767  0.39223527    -0.54100
C271        C  0.06668988  0.59872839  0.41026784     0.09100
C272        C  0.10670865  0.60270848  0.39458060     0.20100
C273        C  0.09061848  0.66401555  0.38315359    -0.54800
C274        C  0.11654049  0.64358447  0.39799178     0.09200
C275        C  0.07917754  0.61751928  0.33797119    -0.54300
C276        C  0.10413482  0.59688264  0.35303511     0.09800
H277        H  0.01509705  0.62175276  0.40066262     0.14300
H278        H  0.12570683  0.58449125  0.40703807     0.00000
H279        H  0.09182177  0.69307049  0.38415288     0.14600
H280        H  0.07507926  0.61756000  0.30907609     0.14400
O281        O  0.97015056  0.58342036  0.54977799    -0.81200
O282        O  0.07564637  0.47763296  0.47617098    -0.65900
O283        O  0.99558332  0.53973371  0.49370952    -1.12500
C284        C  0.95251313  0.43612039  0.56145547     1.05700
O285        O  0.03373083  0.43872581  0.45760932    -0.79100
O286        O  0.96079646  0.43558804  0.46848395    -0.66700
Ni287      Ni  0.00209922  0.58841266  0.50769943     1.34900
C288        C  0.93884340  0.46044152  0.46277492     0.84400
O289        O  0.06157862  0.54706509  0.45202012    -0.79600
O290        O  0.03178334  0.59724904  0.46480100    -0.89900
C291        C  0.06695874  0.44731017  0.46179729     0.84000
O292        O  0.04416040  0.58495216  0.53803467    -0.68100
O293        O  0.97334463  0.41908552  0.54034356    -0.87400
C294        C  0.06681613  0.56094841  0.54496139     0.84800
C295        C  0.05348128  0.57965945  0.44474969     1.06400
H296        H  0.02293712  0.47653306  0.53805274     0.38200
O297        O  0.01040086  0.47825277  0.51560182    -1.10100
O298        O  0.93988751  0.48937082  0.48177525    -0.66700
Ni299      Ni  0.96869289  0.50606501  0.52429476     1.26300
O300        O  0.06606864  0.53075705  0.52778022    -0.66900
O301        O  0.94529216  0.46949028  0.55660870    -0.79200
C302        C  0.93765835  0.57041549  0.54957525     0.84200
O303        O  0.93067413  0.53964676  0.53528412    -0.66400
Ni304      Ni  0.00267912  0.43042558  0.49864330     1.27400
Ni305      Ni  0.03771833  0.51189268  0.48548426     1.26100
H306        H  0.98318299  0.54044261  0.47111734     0.38800
C307        C  0.63464819  0.37698843  0.05941232     0.86200
C308        C  0.60238715  0.39524787  0.04331701    -0.54100
C309        C  0.58027351  0.41078086  0.06808012     0.09100
C310        C  0.59342476  0.40642461  0.10788448     0.20100
C311        C  0.65326754  0.40742614  0.08167244    -0.54800
C312        C  0.63268263  0.42109161  0.10861942     0.09200
C313        C  0.61734107  0.35081102  0.08685579    -0.54300
C314        C  0.59920232  0.36600237  0.11458898     0.09800
H315        H  0.59764674  0.39813769  0.01497562     0.14300
H316        H  0.57525666  0.41941223  0.12729695     0.00000
H317        H  0.68197228  0.41424692  0.07947640     0.14600
H318        H  0.62223054  0.32241438  0.08558927     0.14400
C319        C  0.54972122  0.64106092  0.14025628     0.86200
C320        C  0.57607395  0.65948587  0.11372631    -0.54100
C321        C  0.60111604  0.63814056  0.09881529     0.09100
C322        C  0.59553512  0.59808892  0.10926096     0.20100
C323        C  0.53114371  0.61134650  0.11711459    -0.54800
C324        C  0.55464060  0.58860805  0.10030756     0.09200
C325        C  0.57327672  0.62051810  0.16602255    -0.54300
C326        C  0.59806255  0.59901950  0.15101759     0.09800
H327        H  0.57680732  0.68827023  0.10944084     0.14300
H328        H  0.61495564  0.58003815  0.09626379     0.00000
H329        H  0.50269802  0.60983012  0.11098378     0.14600
H330        H  0.57181932  0.62476441  0.19490387     0.14400
C331        C  0.44512621  0.36124321  0.86565091     0.86200
C332        C  0.46485324  0.39192640  0.88627904    -0.54100
C333        C  0.44230179  0.41732803  0.90019179     0.09100
C334        C  0.40132203  0.40967876  0.88949078     0.20100
C335        C  0.41716422  0.34728531  0.89268660    -0.54800
C336        C  0.39268133  0.37133348  0.90281012     0.09200
C337        C  0.42447346  0.38010387  0.83667736    -0.54300
C338        C  0.40005149  0.40439490  0.84779614     0.09800
H339        H  0.49320211  0.39138706  0.89332617     0.14300
H340        H  0.38297627  0.42977337  0.90056938     0.00000
H341        H  0.41653393  0.32024540  0.90318237     0.14600
H342        H  0.42639201  0.37066368  0.80917021     0.14400
C343        C  0.36635865  0.63489938  0.93959577     0.86200
C344        C  0.34670375  0.61631001  0.90845211    -0.54100
C345        C  0.36809810  0.59851227  0.88560523     0.09100
C346        C  0.40795188  0.59720171  0.89849029     0.20100
C347        C  0.38446264  0.60438291  0.95981857    -0.54800
C348        C  0.40783014  0.58513367  0.93840072     0.09200
C349        C  0.39919821  0.65541930  0.92435113    -0.54300
C350        C  0.41973115  0.63651053  0.90118676     0.09800
H351        H  0.31780170  0.61803271  0.90466619     0.14300
H352        H  0.42613966  0.58174319  0.88084481     0.00000
H353        H  0.38393933  0.60207322  0.98883037     0.14600
H354        H  0.40235540  0.68429418  0.92732150     0.14400
C355        C  0.61369934  0.56038502  0.86159035     0.86200
C356        C  0.58846169  0.54222986  0.89076703    -0.54100
C357        C  0.57087526  0.56615604  0.91322864     0.09100
C358        C  0.58266095  0.60653504  0.90428453     0.20100
C359        C  0.58793217  0.58537839  0.84309576    -0.54800
C360        C  0.57264180  0.61128874  0.86389712     0.09200
C361        C  0.63966115  0.58407327  0.88266498    -0.54300
C362        C  0.62511182  0.60872580  0.90417163     0.09800
H363        H  0.58369933  0.51349405  0.89241365     0.14300
H364        H  0.57039093  0.62618825  0.92265252     0.00000
H365        H  0.58424995  0.58281115  0.81480348     0.14600
H366        H  0.66886134  0.58270559  0.87909132     0.14400
C367        C  0.38595604  0.45994936  0.14571087     0.86200
C368        C  0.41353551  0.43612302  0.16417155    -0.54100
C369        C  0.42389005  0.40738269  0.14442030     0.09100
C370        C  0.41031011  0.40812176  0.10529271     0.20100
C371        C  0.40786831  0.47368017  0.11246722    -0.54800
C372        C  0.42204995  0.44679752  0.09142756     0.09200
C373        C  0.35727229  0.43374012  0.13111322    -0.54300
C374        C  0.36855129  0.40641516  0.11054996     0.09800
H375        H  0.42389914  0.44085749  0.19086412     0.14300
H376        H  0.42059571  0.38646852  0.08805659     0.00000
H377        H  0.41436075  0.50180085  0.10784443     0.14600
H378        H  0.32911447  0.43519770  0.13958642     0.14400
O379        O  0.54255915  0.57718151  0.03785747    -0.81200
O380        O  0.47233017  0.47042565  0.92722245    -0.65900
O381        O  0.48695652  0.53172836  0.01030403    -1.12500
C382        C  0.54849022  0.43057530  0.05438966     1.05700
O383        O  0.45103581  0.42775603  0.96361218    -0.79100
O384        O  0.45465487  0.42964259  0.03824264    -0.66700
Ni385      Ni  0.50105768  0.58087550  0.00627508     1.34900
C386        C  0.45131914  0.45340841  0.06256464     0.84400
O387        O  0.44940435  0.53748401  0.94458590    -0.79600
O388        O  0.45852974  0.58784300  0.97725039    -0.89900
C389        C  0.45535868  0.44021622  0.93179019     0.84000
O390        O  0.53280770  0.57946491  0.96430129    -0.68100
O391        O  0.52728648  0.41286732  0.03324775    -0.87400
C392        C  0.54116954  0.55556044  0.94137633     0.84800
C393        C  0.44051631  0.56894183  0.95435214     1.06400
H394        H  0.53196122  0.46857126  0.98198161     0.38200
O395        O  0.50874296  0.47046943  0.99393356    -1.10100
O396        O  0.47273993  0.48133478  0.06392451    -0.66700
Ni397      Ni  0.51612327  0.49931165  0.03653439     1.26300
O398        O  0.52471871  0.52432837  0.94144391    -0.66900
O399        O  0.54626212  0.46440708  0.05996662    -0.79200
C400        C  0.54113007  0.56470144  0.06980102     0.84200
O401        O  0.52620892  0.53363999  0.07557280    -0.66400
Ni402      Ni  0.48913650  0.42271569  0.99950054     1.27400
Ni403      Ni  0.48072927  0.50367943  0.96736371     1.26100
H404        H  0.46351818  0.53165966  0.02205491     0.38800
C405        C  0.27836493  0.50786388  0.70428866     0.45200
H406        H  0.27273641  0.51532485  0.67667417    -0.03900
C407        C  0.28667608  0.49462807  0.77120296     0.45200
H408        H  0.29031527  0.48974648  0.80013689    -0.03900
C409        C  0.24260869  0.50641809  0.72470229    -0.17600
C410        C  0.29559318  0.47150409  0.70997825    -0.17300
C411        C  0.30384733  0.53526741  0.72336463    -0.17700
C412        C  0.24643504  0.50067573  0.76101629    -0.17700
C413        C  0.30119426  0.46435126  0.74637596    -0.17200
C414        C  0.30862650  0.52810831  0.75924825    -0.17600
C415        C  0.63895337  0.63816688  0.44846158     0.86200
C416        C  0.61049743  0.61460066  0.46885419    -0.54100
C417        C  0.58155021  0.60376563  0.44783929     0.09100
C418        C  0.58415736  0.61763313  0.40863709     0.20100
C419        C  0.64838770  0.61413102  0.41659350    -0.54800
C420        C  0.62074500  0.60592864  0.39459002     0.09200
C421        C  0.61748693  0.66888724  0.43315316    -0.54300
C422        C  0.58958586  0.65844688  0.41198860     0.09800
H423        H  0.61414324  0.60408888  0.49555403     0.14300
H424        H  0.56163376  0.60843097  0.39105740     0.00000
H425        H  0.67544981  0.60471828  0.41120437     0.14600
H426        H  0.62535597  0.69693496  0.43694199     0.14400
C427        C  0.62504882  0.44547133  0.63776017     0.86200
C428        C  0.60961155  0.46396390  0.60482331    -0.54100
C429        C  0.59497113  0.44094678  0.57969095     0.09100
C430        C  0.59830864  0.40066904  0.58973276     0.20100
C431        C  0.59269296  0.42240037  0.65069160    -0.54800
C432        C  0.57873832  0.39806629  0.62663175     0.09200
C433        C  0.65209319  0.41924784  0.62306589    -0.54300
C434        C  0.63915207  0.39539561  0.59865365     0.09800
H435        H  0.60631504  0.49249964  0.60285675     0.14300
H436        H  0.58749272  0.38225827  0.56883847     0.00000
H437        H  0.58324584  0.42456442  0.67793738     0.14600
H438        H  0.67989922  0.41895718  0.63231462     0.14400
C439        C  0.43864763  0.64570094  0.61287558     0.86200
C440        C  0.45795300  0.61852362  0.58748840    -0.54100
C441        C  0.43407941  0.59761090  0.56656589     0.09100
C442        C  0.39324840  0.60770783  0.57342058     0.20100
C443        C  0.41683726  0.66728959  0.58699599    -0.54800
C444        C  0.39082660  0.64931498  0.56781995     0.09200
C445        C  0.41249802  0.62171576  0.63354880    -0.54300
C446        C  0.38774957  0.60329662  0.61420211     0.09800
H447        H  0.48694358  0.61507152  0.58718403     0.14300
H448        H  0.37386990  0.59100586  0.55766650     0.00000
H449        H  0.42021239  0.69581403  0.58835902     0.14600
H450        H  0.41294305  0.62003172  0.66276339     0.14400
C451        C  0.36230023  0.55700499  0.36413897     0.86200
C452        C  0.39232881  0.57841213  0.34396535    -0.54100
C453        C  0.41103057  0.60357834  0.36360108     0.09100
C454        C  0.40127312  0.60080058  0.40387122     0.20100
C455        C  0.38305370  0.53815840  0.39390769    -0.54800
C456        C  0.40350329  0.56104709  0.41494998     0.09200
C457        C  0.34064526  0.58494385  0.38443524    -0.54300
C458        C  0.36048791  0.60906541  0.40413280     0.09800
H459        H  0.39337828  0.57752847  0.31505389     0.14300
H460        H  0.41956899  0.61726495  0.42057090     0.00000
H461        H  0.38301035  0.50972637  0.39849966     0.14600
H462        H  0.31170647  0.58730835  0.38069060     0.14400
C463        C  0.53881378  0.36953906  0.38387281     0.86200
C464        C  0.56615133  0.34747492  0.40503939    -0.54100
C465        C  0.59427521  0.36765679  0.41905267     0.09100
C466        C  0.59197553  0.40805516  0.41155426     0.20100
C467        C  0.52617839  0.39823689  0.41074585    -0.54800
C468        C  0.55360756  0.41851356  0.42598164     0.09200
C469        C  0.56335658  0.38866704  0.35659575    -0.54300
C470        C  0.59087359  0.40886367  0.37008784     0.09800
H471        H  0.56573402  0.31846073  0.40592064     0.14300
H472        H  0.61491208  0.42434600  0.42262115     0.00000
H473        H  0.49790633  0.40157583  0.41761600     0.14600
H474        H  0.56162163  0.38323604  0.32795757     0.14400
C475        C  0.37076670  0.35331339  0.55454182     0.86200
C476        C  0.35184569  0.37213132  0.58512975    -0.54100
C477        C  0.37372729  0.38932364  0.60840631     0.09100
C478        C  0.41418756  0.38889347  0.59764434     0.20100
C479        C  0.39264950  0.38378656  0.53541219    -0.54800
C480        C  0.41584774  0.40271975  0.55794556     0.09200
C481        C  0.39992210  0.33105906  0.57081565    -0.54300
C482        C  0.42170053  0.34817757  0.59512529     0.09800
H483        H  0.32253550  0.37174039  0.58832488     0.14300
H484        H  0.43231272  0.40416313  0.61617132     0.00000
H485        H  0.39011805  0.39027172  0.50723255     0.14600
H486        H  0.39834405  0.30223129  0.56775677     0.14400
O487        O  0.42654644  0.46603614  0.54918365    -0.81200
O488        O  0.52603606  0.57878140  0.47326999    -0.65900
O489        O  0.46626650  0.49481318  0.49127231    -1.12500
C490        C  0.57362582  0.45607403  0.54982128     1.05700
O491        O  0.56707926  0.54204109  0.45304537    -0.79100
O492        O  0.57203584  0.46999948  0.46018262    -0.66700
Ni493      Ni  0.41795783  0.49712874  0.50843913     1.34900
C494        C  0.54728643  0.44618460  0.45529250     0.84400
O495        O  0.45646672  0.55847856  0.45243426    -0.79600
O496        O  0.40645104  0.52485958  0.46666918    -0.89900
C497        C  0.55677594  0.57367978  0.45857847     0.84000
O498        O  0.42093412  0.54071359  0.53755752    -0.68100
O499        O  0.59013373  0.47998771  0.53085396    -0.87400
C500        C  0.44448141  0.56619438  0.54174579     0.84800
C501        C  0.42350041  0.54784198  0.44684198     1.06400
H502        H  0.53115592  0.52595622  0.53398350     0.38200
O503        O  0.52911261  0.51390200  0.51106665    -1.10100
O504        O  0.51820909  0.44495121  0.47467023    -0.66700
Ni505      Ni  0.50178274  0.47019251  0.51862193     1.26300
O506        O  0.47521346  0.56588627  0.52507187    -0.66900
O507        O  0.53970114  0.44783736  0.54659226    -0.79200
C508        C  0.43844591  0.43441624  0.54504298     0.84200
O509        O  0.46869974  0.42990813  0.52875819    -0.66400
Ni510      Ni  0.57711948  0.51056748  0.49203119     1.27400
Ni511      Ni  0.49347456  0.53824737  0.48297691     1.26100
H512        H  0.46444723  0.48282227  0.46826993     0.38800
C513        C  0.48818696  0.78843014  0.77039781     0.45200
H514        H  0.48587202  0.81768420  0.76691687    -0.03900
C515        C  0.49031916  0.71981127  0.77209481     0.45200
H516        H  0.48909144  0.69011506  0.77198107    -0.03900
C517        C  0.52267382  0.77557886  0.78944812    -0.17600
C518        C  0.45728529  0.77145264  0.79299033    -0.17300
C519        C  0.48717959  0.77054939  0.73349527    -0.17700
C520        C  0.52378241  0.73792466  0.79074671    -0.17700
C521        C  0.45848760  0.73477482  0.79304741    -0.17200
C522        C  0.48898688  0.73446262  0.73426059    -0.17600
C523        C  0.28023191  0.01288858  0.22503664     0.45200
H524        H  0.28210575  0.01180516  0.19535114    -0.03900
C525        C  0.27440973  0.01141531  0.29398063     0.45200
H526        H  0.27179274  0.01127990  0.32370164    -0.03900
C527        C  0.30435382  0.98487168  0.24230587    -0.17600
C528        C  0.29222332  0.04898184  0.24196068    -0.17300
C529        C  0.24137243  0.00591133  0.23867484    -0.17700
C530        C  0.30067937  0.98317783  0.27918082    -0.17700
C531        C  0.29092230  0.04729059  0.27930432    -0.17200
C532        C  0.23768459  0.00460042  0.27520359    -0.17600
C533        C  0.27823121  0.77445963  0.99443540     0.45200
H534        H  0.30749762  0.77678290  0.98800010    -0.03900
C535        C  0.21000484  0.76888581  0.00462218     0.45200
H536        H  0.18182213  0.76430190  0.01187351    -0.03900
C537        C  0.26331592  0.73583310  0.99295106    -0.17600
C538        C  0.26767259  0.78846383  0.03155751    -0.17300
C539        C  0.25712499  0.79712912  0.96768929    -0.17700
C540        C  0.22652536  0.73235259  0.99534031    -0.17700
C541        C  0.23049182  0.78775169  0.03627646    -0.17200
C542        C  0.21941746  0.79383039  0.97264573    -0.17600
C543        C  0.37774621  0.94885104  0.86817081     0.86200
C544        C  0.40638621  0.96616002  0.89428818    -0.54100
C545        C  0.42077314  0.94240887  0.91860500     0.09100
C546        C  0.40307576  0.90324624  0.91441215     0.20100
C547        C  0.39926661  0.91792401  0.85170128    -0.54800
C548        C  0.40953726  0.89205057  0.87484927     0.09200
C549        C  0.34927011  0.93065471  0.89267659    -0.54300
C550        C  0.36162805  0.90643511  0.91598523     0.09800
H551        H  0.41577388  0.99386125  0.89264070     0.14300
H552        H  0.41218885  0.88422464  0.93469875     0.00000
H553        H  0.40521275  0.91568701  0.82324633     0.14600
H554        H  0.32040385  0.93350685  0.88869090     0.14400
C555        C  0.63425418  0.87194013  0.94304919     0.86200
C556        C  0.65466850  0.90009733  0.91989625    -0.54100
C557        C  0.63377166  0.91784401  0.89668037     0.09100
C558        C  0.59321253  0.90898017  0.90093401     0.20100
C559        C  0.60540663  0.89354041  0.96335010    -0.54800
C560        C  0.58349708  0.91294880  0.94156340     0.09200
C561        C  0.61156864  0.84942660  0.91634106    -0.54300
C562        C  0.59157841  0.86844280  0.89317067     0.09800
H563        H  0.68402163  0.90197721  0.91812392     0.14300
H564        H  0.57712793  0.92564723  0.88317832     0.00000
H565        H  0.60107166  0.89369424  0.99195357     0.14600
H566        H  0.61361766  0.82054622  0.91402174     0.14400
C567        C  0.44003548  0.85998294  0.13304629     0.86200
C568        C  0.41612230  0.84602267  0.10273907    -0.54100
C569        C  0.39088182  0.86903413  0.09054998     0.09100
C570        C  0.39670598  0.90683997  0.10706421     0.20100
C571        C  0.46020580  0.89232678  0.11546096    -0.54800
C572        C  0.43764129  0.91702527  0.10126912     0.09200
C573        C  0.41517115  0.87633881  0.16086225    -0.54300
C574        C  0.39218344  0.89995547  0.14778757     0.09800
H575        H  0.41825402  0.81882548  0.09360139     0.14300
H576        H  0.37921941  0.92760719  0.09639620     0.00000
H577        H  0.48915353  0.89356400  0.11048334     0.14600
H578        H  0.41669412  0.87051311  0.18936123     0.14400
C579        C  0.36301069  0.13984529  0.05971387     0.86200
C580        C  0.38489984  0.10854007  0.04547027    -0.54100
C581        C  0.40874632  0.09477223  0.06947932     0.09100
C582        C  0.40667862  0.11334223  0.10713907     0.20100
C583        C  0.34482283  0.12697465  0.09445799    -0.54800
C584        C  0.36634816  0.11198411  0.11946345     0.09200
C585        C  0.39138070  0.16692048  0.07392032    -0.54300
C586        C  0.41336609  0.15380478  0.09939620     0.09800
H587        H  0.38447964  0.10067989  0.01738357     0.14300
H588        H  0.42578898  0.10217612  0.12636966     0.00000
H589        H  0.31768207  0.13459099  0.10133774     0.14600
H590        H  0.39091987  0.19539881  0.06824525     0.14400
C591        C  0.56394626  0.13931477  0.87372813     0.86200
C592        C  0.54062235  0.11132671  0.89465815    -0.54100
C593        C  0.56031760  0.08525538  0.91074154     0.09100
C594        C  0.60216426  0.08957151  0.90305620     0.20100
C595        C  0.59057938  0.15315007  0.90187972    -0.54800
C596        C  0.61245829  0.12809190  0.91551030     0.09200
C597        C  0.58520740  0.11692211  0.84733154    -0.54300
C598        C  0.60643720  0.09196682  0.86162151     0.09800
H599        H  0.51182892  0.11343743  0.89946871     0.14300
H600        H  0.61791811  0.06840408  0.91569481     0.00000
H601        H  0.59412667  0.18132482  0.90844994     0.14600
H602        H  0.58525389  0.12241714  0.81865724     0.14400
C603        C  0.61317669  0.06109789  0.14569108     0.86200
C604        C  0.58898279  0.08533745  0.16761115    -0.54100
C605        C  0.57301836  0.11178854  0.14935360     0.09100
C606        C  0.57747885  0.10653161  0.10809536     0.20100
C607        C  0.58563559  0.04214188  0.11964986    -0.54800
C608        C  0.56619660  0.06596906  0.09915606     0.09200
C609        C  0.63629905  0.08438535  0.12033428    -0.54300
C610        C  0.61911930  0.11017577  0.10262642     0.09800
H611        H  0.59124343  0.08537816  0.19651119     0.14300
H612        H  0.56154599  0.12556081  0.09295012     0.00000
H613        H  0.58223340  0.01331172  0.11721596     0.14600
H614        H  0.66558093  0.08252059  0.11931461     0.14400
O615        O  0.44823535  0.93151429  0.04018483    -0.81200
O616        O  0.52581818  0.03343559  0.93339556    -0.65900
O617        O  0.50647903  0.97255024  0.01477110    -1.12500
C618        C  0.44091143  0.07503229  0.05509140     1.05700
O619        O  0.54529043  0.07468710  0.97242286    -0.79100
O620        O  0.53298659  0.07930743  0.04592622    -0.66700
Ni621      Ni  0.48967201  0.92418194  0.00939204     1.34900
C622        C  0.53816714  0.05571743  0.06979394     0.84400
O623        O  0.54526584  0.96449061  0.94873286    -0.79600
O624        O  0.53165674  0.91412394  0.97984355    -0.89900
C625        C  0.54338592  0.06282840  0.94018883     0.84000
O626        O  0.45852520  0.92719964  0.96808294    -0.68100
O627        O  0.46114962  0.09234832  0.03251636    -0.87400
C628        C  0.45171375  0.95143830  0.94544005     0.84800
C629        C  0.55124886  0.93179185  0.95703370     1.06400
H630        H  0.46296063  0.03515474  0.98649120     0.38200
O631        O  0.48592224  0.03390246  0.99847065    -1.10100
O632        O  0.52030252  0.02529296  0.06918989    -0.66700
Ni633      Ni  0.47738671  0.00635575  0.04104252     1.26300
O634        O  0.47032873  0.98150681  0.94519734    -0.66900
O635        O  0.44598459  0.04207629  0.06353175    -0.79200
C636        C  0.45117262  0.94203699  0.07260383     0.84200
O637        O  0.46644202  0.97254816  0.07971835    -0.66400
Ni638      Ni  0.50333613  0.08202284  0.00339515     1.27400
Ni639      Ni  0.51445596  0.99997783  0.97205336     1.26100
H640        H  0.52944042  0.97163019  0.02673870     0.38800
C641        C  0.99640455  0.78926337  0.21273778     0.45200
H642        H  0.99984303  0.81873109  0.21380187    -0.03900
C643        C  0.99602768  0.72048258  0.21119189     0.45200
H644        H  0.99530120  0.69073251  0.21118864    -0.03900
C645        C  0.95860247  0.77345035  0.20261090    -0.17600
C646        C  0.02200380  0.77431527  0.18423719    -0.17300
C647        C  0.00628527  0.77284630  0.24877018    -0.17700
C648        C  0.95933255  0.73606780  0.20099890    -0.17700
C649        C  0.02260520  0.73743086  0.18329989    -0.17200
C650        C  0.00596521  0.73635863  0.24810823    -0.17600
C651        C  0.71179496  0.23237794  0.00421202     0.45200
H652        H  0.68292309  0.23632015  0.99950677    -0.03900
C653        C  0.78130442  0.23119264  0.00767811     0.45200
H654        H  0.81125232  0.23086578  0.00904054    -0.03900
C655        C  0.72338535  0.21356220  0.03881646    -0.17600
C656        C  0.72919370  0.20985339  0.97441066    -0.17300
C657        C  0.73021503  0.26929454  0.00455401    -0.17700
C658        C  0.76151458  0.21363136  0.04063388    -0.17700
C659        C  0.76621909  0.20932974  0.97606725    -0.17200
C660        C  0.76695288  0.26889720  0.00406306    -0.17600
C661        C  0.22870570  0.01001450  0.71712496     0.45200
H662        H  0.22868581  0.00779052  0.68813802    -0.03900
C663        C  0.22779037  0.00937396  0.78589679     0.45200
H664        H  0.22714523  0.00868389  0.81561961    -0.03900
C665        C  0.21462051  0.04553174  0.73224273    -0.17600
C666        C  0.20305008  0.98115095  0.73233969    -0.17300
C667        C  0.26601466  0.00387028  0.73368295    -0.17700
C668        C  0.21337701  0.04448258  0.76994691    -0.17700
C669        C  0.20275913  0.98060606  0.76899169    -0.17200
C670        C  0.26574703  0.00323101  0.77060326    -0.17600
C671        C  0.13817989  0.13039055  0.95179623     0.86200
C672        C  0.11278906  0.10132304  0.97081044    -0.54100
C673        C  0.09169248  0.08055821  0.94703843     0.09100
C674        C  0.09868119  0.09213300  0.90681487     0.20100
C675        C  0.15956211  0.10797865  0.92530808    -0.54800
C676        C  0.14021575  0.08926984  0.90013430     0.09200
C677        C  0.11216495  0.15163123  0.92982779    -0.54300
C678        C  0.09208100  0.13286010  0.90586915     0.09800
H679        H  0.11142186  0.09777664  0.99966870     0.14300
H680        H  0.08169493  0.07682658  0.88744432     0.00000
H681        H  0.18856032  0.11165721  0.92418964     0.14600
H682        H  0.11173045  0.18071850  0.93125706     0.14400
C683        C  0.14465999  0.94724243  0.13031239     0.86200
C684        C  0.11558139  0.96851589  0.11101112    -0.54100
C685        C  0.09441715  0.94790647  0.08843297     0.09100
C686        C  0.10443307  0.90740366  0.08833932     0.20100
C687        C  0.12316194  0.91742645  0.14955879    -0.54800
C688        C  0.10346709  0.89543550  0.12811321     0.09200
C689        C  0.16517499  0.93061329  0.09910148    -0.54300
C690        C  0.14510693  0.90731239  0.07893462     0.09800
H691        H  0.11204206  0.99705549  0.11376851     0.14300
H692        H  0.08784128  0.89039665  0.06991111     0.00000
H693        H  0.12321064  0.91491564  0.17844674     0.14600
H694        H  0.19452362  0.93245699  0.09702307     0.14400
C695        C  0.93836346  0.15515648  0.12346246     0.86200
C696        C  0.95866747  0.12255464  0.10915105    -0.54100
C697        C  0.93683944  0.09791708  0.09147710     0.09100
C698        C  0.89656307  0.10835843  0.09049492     0.20100
C699        C  0.91980565  0.16890715  0.08922084    -0.54800
C700        C  0.89354968  0.14611206  0.07455195     0.09200
C701        C  0.90847921  0.13817440  0.14677412    -0.54300
C702        C  0.88583007  0.11505807  0.12963427     0.09800
H703        H  0.98750699  0.11921119  0.11185070     0.14300
H704        H  0.88111479  0.08744522  0.07633298     0.00000
H705        H  0.92490938  0.19583606  0.07961063     0.14600
H706        H  0.90622282  0.14357798  0.17528937     0.14400
C707        C  0.86293162  0.88405200  0.05595381     0.86200
C708        C  0.84314955  0.90719573  0.08395794    -0.54100
C709        C  0.86445040  0.92278531  0.10980188     0.09100
C710        C  0.90447341  0.91687511  0.10288585     0.20100
C711        C  0.88960866  0.91245050  0.03841951    -0.54800
C712        C  0.91165863  0.93061211  0.06326775     0.09200
C713        C  0.88866181  0.86029477  0.07603260    -0.54300
C714        C  0.90658155  0.87525791  0.10426530     0.09800
H715        H  0.81387236  0.90849634  0.08481399     0.14300
H716        H  0.92241365  0.93100128  0.12144240     0.00000
H717        H  0.89014321  0.91844088  0.00995540     0.14600
H718        H  0.88897134  0.83188712  0.07004502     0.14400
C719        C  0.05390229  0.87027030  0.87545219     0.86200
C720        C  0.08675282  0.85403962  0.89304956    -0.54100
C721        C  0.11052060  0.87830195  0.90728913     0.09100
C722        C  0.09939548  0.91737450  0.90373571     0.20100
C723        C  0.03691139  0.89453986  0.90392699    -0.54800
C724        C  0.06061502  0.91951069  0.91853218     0.09200
C725        C  0.07179074  0.89630966  0.84843555    -0.54300
C726        C  0.09500627  0.92124143  0.86313362     0.09800
H727        H  0.09342397  0.82614124  0.89178573     0.14300
H728        H  0.11863681  0.93721640  0.91597256     0.00000
H729        H  0.00801839  0.89432728  0.90938776     0.14600
H730        H  0.06942843  0.89263114  0.81961107     0.14400
C731        C  0.87133833  0.05656700  0.86564269     0.86200
C732        C  0.90108673  0.08365851  0.85268638    -0.54100
C733        C  0.91061671  0.10930969  0.87705651     0.09100
C734        C  0.89646938  0.10035676  0.91516078     0.20100
C735        C  0.89077625  0.03747423  0.89597917    -0.54800
C736        C  0.90457398  0.06017929  0.92187143     0.09200
C737        C  0.84268392  0.07925522  0.88449300    -0.54300
C738        C  0.85553917  0.10167154  0.91053638     0.09800
H739        H  0.91217226  0.08500657  0.82576504     0.14300
H740        H  0.90702100  0.11845892  0.93652922     0.00000
H741        H  0.89728465  0.00942261  0.89482887     0.14600
H742        H  0.81469257  0.07926850  0.87594392     0.14400
O743        O  0.96645802  0.05245013  0.93517980    -0.81200
O744        O  0.07186720  0.98039830  0.03769547    -0.65900
O745        O  0.99183059  0.99619122  0.97559599    -1.12500
C746        C  0.95092602  0.06400392  0.07563297     1.05700
O747        O  0.03277435  0.96317545  0.08047063    -0.79100
O748        O  0.95974030  0.97175474  0.08098245    -0.66700
Ni749      Ni  0.99749193  0.01231198  0.92777603     1.34900
C750        C  0.93817808  0.96265160  0.05575811     0.84400
O751        O  0.05581895  0.95866423  0.96911040    -0.79600
O752        O  0.02636200  0.97133590  0.91796179    -0.89900
C753        C  0.06484608  0.96419633  0.06734971     0.84000
O754        O  0.03973357  0.04382972  0.93229302    -0.68100
O755        O  0.97293036  0.04608507  0.09432395    -0.87400
C756        C  0.06318278  0.05071039  0.95638822     0.84800
C757        C  0.04721973  0.95201809  0.93642598     1.06400
H758        H  0.02008538  0.04225587  0.03817181     0.38200
O759        O  0.00777316  0.01907057  0.03725271    -1.10100
O760        O  0.93839264  0.98017671  0.02600719    -0.66700
Ni761      Ni  0.96529866  0.02434553  0.00892591     1.26300
O762        O  0.06288879  0.03290511  0.98612499    -0.66900
O763        O  0.94165243  0.05497674  0.04368917    -0.79200
C764        C  0.93375074  0.04812722  0.94582377     0.84200
O765        O  0.92660583  0.03199758  0.97539169    -0.66400
Ni766      Ni  0.00167765  0.00411612  0.08564497     1.27400
Ni767      Ni  0.03372619  0.98998234  0.00402387     1.26100
H768        H  0.97959282  0.97304830  0.97393262     0.38800
C769        C  0.28534601  0.28487754  0.02597371     0.45200
H770        H  0.31364913  0.28296772  0.03376462    -0.03900
C771        C  0.21816030  0.28489363  0.00909905     0.45200
H772        H  0.18894908  0.28417841  0.00257078    -0.03900
C773        C  0.26162904  0.30490940  0.05434014    -0.17600
C774        C  0.27944260  0.30553546  0.99087306    -0.17300
C775        C  0.26848453  0.24687449  0.01925549    -0.17700
C776        C  0.22538615  0.30333532  0.04493080    -0.17700
C777        C  0.24303713  0.30654349  0.98252156    -0.17200
C778        C  0.23226513  0.24709829  0.01175996    -0.17600
C779        C  0.76573790  0.48617797  0.72129685     0.45200
H780        H  0.76016737  0.47748906  0.69379606    -0.03900
C781        C  0.77154897  0.50218805  0.78836887     0.45200
H782        H  0.77389915  0.50807645  0.81750633    -0.03900
C783        C  0.78671450  0.45841353  0.74228019    -0.17600
C784        C  0.78741182  0.52184076  0.72655947    -0.17300
C785        C  0.72972235  0.49074019  0.74079262    -0.17700
C786        C  0.78905241  0.46692503  0.77811140    -0.17700
C787        C  0.79159504  0.52970177  0.76317335    -0.17200
C788        C  0.73208086  0.49912175  0.77627689    -0.17600
C789        C  0.99897362  0.22062652  0.79307299     0.45200
H790        H  0.99716299  0.19085208  0.79252071    -0.03900
C791        C  0.00153896  0.28905361  0.79389024     0.45200
H792        H  0.00108936  0.31816212  0.79616479    -0.03900
C793        C  0.99359995  0.23720007  0.75558613    -0.17600
C794        C  0.97123600  0.23711985  0.81910988    -0.17300
C795        C  0.03570342  0.23547950  0.80658123    -0.17700
C796        C  0.99163213  0.27420200  0.75598498    -0.17700
C797        C  0.97397053  0.27345875  0.82061890    -0.17200
C798        C  0.03842355  0.27297827  0.80484984    -0.17600
C799        C  0.85811917  0.38900181  0.95850890     0.86200
C800        C  0.88833230  0.41417562  0.97418354    -0.54100
C801        C  0.91137306  0.42868893  0.94808584     0.09100
C802        C  0.90246886  0.41515403  0.90935353     0.20100
C803        C  0.84078533  0.41386998  0.93102742    -0.54800
C804        C  0.86307346  0.42515389  0.90401546     0.09200
C805        C  0.87822497  0.36108131  0.93656841    -0.54300
C806        C  0.90038705  0.37423647  0.91075592     0.09800
H807        H  0.88985282  0.42189016  0.00220959     0.14300
H808        H  0.92102249  0.42543527  0.88789612     0.00000
H809        H  0.81269011  0.42131193  0.93156778     0.14600
H810        H  0.87388334  0.33234256  0.94006721     0.14400
C811        C  0.14198674  0.45314074  0.86714079     0.86200
C812        C  0.12283956  0.42202440  0.84782483    -0.54100
C813        C  0.10513883  0.39772530  0.86886245     0.09100
C814        C  0.10887417  0.40644653  0.90967438     0.20100
C815        C  0.11379047  0.46965642  0.89241625    -0.54800
C816        C  0.09667543  0.44591951  0.91552349     0.09200
C817        C  0.16713006  0.43321544  0.89216475    -0.54300
C818        C  0.15055312  0.40814846  0.91445798     0.09800
H819        H  0.12684240  0.41650758  0.81951382     0.14300
H820        H  0.09345014  0.38795292  0.92741249     0.00000
H821        H  0.10770729  0.49786449  0.89183521     0.14600
H822        H  0.19626422  0.43589241  0.88905831     0.14400
C823        C  0.94436179  0.64184511  0.87323400     0.86200
C824        C  0.92140098  0.65632544  0.90419953    -0.54100
C825        C  0.89589972  0.63266346  0.91727515     0.09100
C826        C  0.89775569  0.59483716  0.90090535     0.20100
C827        C  0.96199726  0.60959123  0.89069060    -0.54800
C828        C  0.93793529  0.58498629  0.90550051     0.09200
C829        C  0.91705252  0.62573258  0.84666589    -0.54300
C830        C  0.89236681  0.60146914  0.86026097     0.09800
H831        H  0.92238917  0.68404718  0.91303607     0.14300
H832        H  0.87867299  0.57470605  0.91302674     0.00000
H833        H  0.99076124  0.60746154  0.89445033     0.14600
H834        H  0.91674031  0.63405328  0.81872126     0.14400
C835        C  0.03758121  0.36015860  0.12398097     0.86200
C836        C  0.02515720  0.39456021  0.10651712    -0.54100
C837        C  0.05261058  0.41788423  0.09630644     0.09100
C838        C  0.09074948  0.40488889  0.10672800     0.20100
C839        C  0.06483860  0.34506827  0.09693137    -0.54800
C840        C  0.09324970  0.36784369  0.08917581     0.09200
C841        C  0.06140480  0.37219716  0.15552843    -0.54300
C842        C  0.08914508  0.39537750  0.14724263     0.09800
H843        H  0.99691331  0.39938246  0.10118676     0.14300
H844        H  0.11334954  0.42372874  0.09945423     0.00000
H845        H  0.06547773  0.31763104  0.08814223     0.14600
H846        H  0.05888825  0.35956045  0.18162220     0.14400
C847        C  0.86420159  0.55613265  0.14066266     0.86200
C848        C  0.88501580  0.53734836  0.11010691    -0.54100
C849        C  0.89936707  0.56026488  0.08428976     0.09100
C850        C  0.89002840  0.60049511  0.09176609     0.20100
C851        C  0.89301761  0.58340642  0.15404363    -0.54800
C852        C  0.90374388  0.60934193  0.13022312     0.09200
C853        C  0.83578229  0.57797250  0.12173341    -0.54300
C854        C  0.84852306  0.60109695  0.09635240     0.09800
H855        H  0.89233291  0.50958554  0.11094860     0.14300
H856        H  0.90009155  0.61856286  0.07038580     0.00000
H857        H  0.90164796  0.58412099  0.18182491     0.14600
H858        H  0.80753989  0.57726193  0.13018353     0.14400
C859        C  0.13279915  0.62334019  0.03875189     0.86200
C860        C  0.15649916  0.60599167  0.06703975    -0.54100
C861        C  0.13739197  0.59092125  0.09461229     0.09100
C862        C  0.09601539  0.59276341  0.09114326     0.20100
C863        C  0.10625145  0.59310124  0.02619923    -0.54800
C864        C  0.08690528  0.57674170  0.05353718     0.09200
C865        C  0.11024491  0.64873529  0.06163756    -0.54300
C866        C  0.09040328  0.63328885  0.08892725     0.09800
H867        H  0.18582150  0.60641754  0.06646176     0.14300
H868        H  0.08084280  0.57899329  0.11300692     0.00000
H869        H  0.10302973  0.58554239  0.99823010     0.14600
H870        H  0.11248851  0.67756138  0.05839939     0.14400
O871        O  0.03417390  0.45453534  0.92881438    -0.81200
O872        O  0.92463607  0.53259225  0.02992679    -0.65900
O873        O  0.00809972  0.51240697  0.96952779    -1.12500
C874        C  0.04337255  0.45068389  0.07579476     1.05700
O875        O  0.96230041  0.55201209  0.07181581    -0.79100
O876        O  0.03527645  0.54280619  0.07299851    -0.66700
Ni877      Ni  0.00349433  0.49479920  0.92154032     1.34900
C878        C  0.05917073  0.54671451  0.04843738     0.84400
O879        O  0.94327745  0.55045328  0.95971666    -0.79600
O880        O  0.97405745  0.53461115  0.90980797    -0.89900
C881        C  0.93007029  0.54826322  0.06024927     0.84000
O882        O  0.96213996  0.46350494  0.92889903    -0.68100
O883        O  0.02234857  0.47189751  0.09221903    -0.87400
C884        C  0.93890862  0.45849888  0.95386723     0.84800
C885        C  0.95160761  0.55422291  0.92630408     1.06400
H886        H  0.97568841  0.47122993  0.03478898     0.38200
O887        O  0.98904018  0.49366334  0.03234726    -1.10100
O888        O  0.06018035  0.52625294  0.02066891    -0.66700
Ni889      Ni  0.03182890  0.48367901  0.00457674     1.26300
O890        O  0.93765895  0.47852175  0.98182550    -0.66900
O891        O  0.05216343  0.45386462  0.04230248    -0.79200
C892        C  0.06634079  0.45763894  0.94032506     0.84200
O893        O  0.07196302  0.47217400  0.97131473    -0.66400
Ni894      Ni  0.99335365  0.51192611  0.08000133     1.27400
Ni895      Ni  0.96497335  0.52173841  0.99721772     1.26100
H896        H  0.02151303  0.53496199  0.96752151     0.38800
C897        C  0.49122247  0.72569204  0.28642835     0.45200
H898        H  0.49521334  0.69636245  0.28736486    -0.03900
C899        C  0.48332353  0.79345065  0.28196159     0.45200
H900        H  0.48059624  0.82220784  0.27881759    -0.03900
C901        C  0.49699976  0.73992366  0.24874488    -0.17600
C902        C  0.45335338  0.73765672  0.29905602    -0.17300
C903        C  0.51760485  0.74685220  0.31043548    -0.17700
C904        C  0.49319701  0.77577443  0.24620626    -0.17700
C905        C  0.44841055  0.77445830  0.29620298    -0.17200
C906        C  0.51296430  0.78338642  0.30885051    -0.17600
C907        C  0.49687028  0.28052207  0.72642253     0.45200
H908        H  0.48966398  0.30884717  0.72856606    -0.03900
C909        C  0.50942517  0.21365516  0.72636575     0.45200
H910        H  0.51833293  0.18603158  0.72696811    -0.03900
C911        C  0.46510938  0.25777030  0.71148876    -0.17600
C912        C  0.52825524  0.27171349  0.70048560    -0.17300
C913        C  0.50650685  0.26625943  0.76320316    -0.17700
C914        C  0.47078951  0.22104588  0.71334394    -0.17700
C915        C  0.53451200  0.23522187  0.70065287    -0.17200
C916        C  0.51172380  0.23076788  0.76316637    -0.17600
C917        C  0.72596139  0.01099845  0.77838621     0.45200
H918        H  0.72620411  0.01672927  0.80763380    -0.03900
C919        C  0.72774397  0.99669399  0.71079332     0.45200
H920        H  0.72901623  0.99112148  0.68158147    -0.03900
C921        C  0.76427732  0.01000329  0.76265163    -0.17600
C922        C  0.70724299  0.97477035  0.76984362    -0.17300
C923        C  0.70488417  0.03797258  0.75585463    -0.17700
C924        C  0.76544483  0.00165941  0.72687543    -0.17700
C925        C  0.70761881  0.96726508  0.73341982    -0.17200
C926        C  0.70691597  0.03081550  0.71941316    -0.17600
C927        C  0.36704165  0.05277978  0.63427581     0.86200
C928        C  0.40028748  0.03790461  0.61692483    -0.54100
C929        C  0.41849477  0.06110642  0.59493319     0.09100
C930        C  0.40160139  0.09846179  0.59263201     0.20100
C931        C  0.37885922  0.08757668  0.65296889    -0.54800
C932        C  0.39771416  0.11096557  0.63188710     0.09200
C933        C  0.34431094  0.06635509  0.60316612    -0.54300
C934        C  0.36127746  0.09227671  0.58171663     0.09800
H935        H  0.40850680  0.01061995  0.62136675     0.14300
H936        H  0.41868892  0.11583311  0.57521620     0.00000
H937        H  0.37320156  0.09362755  0.68094093     0.14600
H938        H  0.31542010  0.06077318  0.60339672     0.14400
C939        C  0.55932659  0.85696448  0.62654966     0.86200
C940        C  0.54065521  0.88057206  0.59883028    -0.54100
C941        C  0.56340921  0.90610698  0.58352373     0.09100
C942        C  0.60314702  0.90522405  0.59781811     0.20100
C943        C  0.59043030  0.84149425  0.60533529    -0.54800
C944        C  0.61461930  0.86613189  0.59239345     0.09200
C945        C  0.57598671  0.88377999  0.65313719    -0.54300
C946        C  0.59968285  0.90841776  0.63901923     0.09800
H947        H  0.51210327  0.87879375  0.59263097     0.14300
H948        H  0.62200751  0.92552231  0.58556833     0.00000
H949        H  0.59299298  0.81307097  0.60027285     0.14600
H950        H  0.57237917  0.88047134  0.68193471     0.14400
C951        C  0.63269695  0.12627853  0.54485439     0.86200
C952        C  0.65284328  0.10278471  0.57160748    -0.54100
C953        C  0.63180922  0.08870848  0.59834598     0.09100
C954        C  0.59216562  0.09883818  0.59640645     0.20100
C955        C  0.60056083  0.10257062  0.53124990    -0.54800
C956        C  0.57931460  0.08789052  0.55826280     0.09200
C957        C  0.61547864  0.15404626  0.56959816    -0.54300
C958        C  0.59472536  0.13987500  0.59639761     0.09800
H959        H  0.68181995  0.10105273  0.57323748     0.14300
H960        H  0.57536418  0.08751434  0.61875291     0.00000
H961        H  0.59569373  0.09726191  0.50301848     0.14600
H962        H  0.62055346  0.18276219  0.56725642     0.14400
C963        C  0.37131994  0.89636495  0.45517954     0.86200
C964        C  0.40839663  0.90889489  0.46881644    -0.54100
C965        C  0.43297236  0.91665705  0.44207108     0.09100
C966        C  0.41760249  0.90799929  0.40308629     0.20100
C967        C  0.36158547  0.92680799  0.42912356    -0.54800
C968        C  0.38348209  0.93065835  0.39939536     0.09200
C969        C  0.37827245  0.86405172  0.43102943    -0.54300
C970        C  0.40099579  0.86895294  0.40265587     0.09800
H971        H  0.41303224  0.91650238  0.49656155     0.14300
H972        H  0.43883223  0.91269623  0.38265481     0.00000
H973        H  0.33722561  0.94195049  0.43153523     0.14600
H974        H  0.36233653  0.84034701  0.43571579     0.14400
C975        C  0.64052264  0.94804486  0.36861939     0.86200
C976        C  0.61649002  0.91942260  0.35047730    -0.54100
C977        C  0.59670195  0.89823727  0.37349840     0.09100
C978        C  0.60391026  0.90672182  0.41296977     0.20100
C979        C  0.61406310  0.96838855  0.39223590    -0.54800
C980        C  0.59462564  0.94656398  0.41530815     0.09200
C981        C  0.66375074  0.92908478  0.39490837    -0.54300
C982        C  0.64538237  0.90575660  0.41629027     0.09800
H983        H  0.61585311  0.91608878  0.32154613     0.14300
H984        H  0.58871600  0.88965497  0.43259822     0.00000
H985        H  0.60837223  0.99647377  0.38944316     0.14600
H986        H  0.69318805  0.93007707  0.39313657     0.14400
C987        C  0.44441721  0.14460510  0.38043591     0.86200
C988        C  0.41395762  0.15933788  0.40356722    -0.54100
C989        C  0.39098015  0.13427924  0.41905658     0.09100
C990        C  0.40513863  0.09588672  0.41376649     0.20100
C991        C  0.46639470  0.12361116  0.40755479    -0.54800
C992        C  0.44566593  0.09768191  0.42515901     0.09200
C993        C  0.42828355  0.11514298  0.35662575    -0.54300
C994        C  0.40619436  0.09084178  0.37299416     0.09800
H995        H  0.40974590  0.18791942  0.40476844     0.14300
H996        H  0.39012813  0.07357256  0.42671523     0.00000
H997        H  0.49545654  0.12655096  0.41065025     0.14600
H998        H  0.42996112  0.11722641  0.32772818     0.14400
O999        O  0.55169683  0.96741385  0.57401091    -0.81200
O1000       O  0.47821590  0.07469110  0.47506313    -0.65900
O1001       O  0.49347342  0.99300026  0.53439446    -1.12500
C1002       C  0.56224359  0.95954242  0.43309688     1.05700
O1003       O  0.45985948  0.03691473  0.43262865    -0.79100
O1004       O  0.47236578  0.96543512  0.42564418    -0.66700
Ni1005     Ni  0.51076329  0.99767333  0.58207993     1.34900
C1006       C  0.46441897  0.94251899  0.44975333     0.84400
O1007       O  0.45615286  0.05709838  0.54283481    -0.79600
O1008       O  0.47040766  0.02695060  0.59296948    -0.89900
C1009       C  0.46209074  0.06852410  0.44548711     0.84000
O1010       O  0.54238627  0.03885479  0.57712326    -0.68100
O1011       O  0.54424442  0.98211415  0.41549597    -0.87400
C1012       C  0.54845092  0.06165059  0.55251737     0.84800
C1013       C  0.45093783  0.04868473  0.57577181     1.06400
H1014       H  0.53968209  0.02418355  0.47261091     0.38200
O1015       O  0.51655770  0.01167534  0.47325865    -1.10100
O1016       O  0.48044447  0.94262374  0.48038487    -0.66700
Ni1017     Ni  0.52304485  0.96923097  0.50020285     1.26300
O1018       O  0.52955017  0.06249292  0.52401394    -0.66900
O1019       O  0.55429280  0.94869195  0.46477530    -0.79200
C1020       C  0.54867473  0.93567927  0.56169977     0.84200
O1021       O  0.53173464  0.92962330  0.53234559    -0.66400
Ni1022     Ni  0.50202704  0.00863375  0.42490584     1.27400
Ni1023     Ni  0.48674455  0.03545880  0.50703494     1.26100
H1024       H  0.47041743  0.98019219  0.53587383     0.38800
C1025       C  0.66569376  0.02479727  0.66746675    -0.20600
C1026       C  0.68625101  0.04768965  0.69006602    -0.07200
C1027       C  0.68809626  0.08467094  0.68246216     0.13700
C1028       C  0.66910242  0.09743938  0.65281796    -0.20700
C1029       C  0.64836215  0.07414970  0.63080267    -0.07200
C1030       C  0.64647375  0.03739785  0.63837171     0.13700
C1031       C  0.62545227  0.01051427  0.61583688    -0.24000
H1032       H  0.66428337  0.99656895  0.67249594     0.15000
H1033       H  0.67093402  0.12567406  0.64630299     0.15000
C1034       C  0.71119745  0.11039697  0.70419373    -0.24000
H1035       H  0.60431620  0.99684054  0.63267733     0.05200
H1036       H  0.64401796  0.99019341  0.60518652     0.08400
H1037       H  0.61202576  0.02273410  0.59269851     0.08400
H1038       H  0.73943383  0.10126734  0.70476245     0.08400
H1039       H  0.70047766  0.11225596  0.73193712     0.08400
H1040       H  0.71158563  0.13777386  0.69267875     0.05200
C1041       C  0.64426492  0.94632088  0.72294542    -0.20600
C1042       C  0.68105596  0.94360794  0.71421634    -0.07200
C1043       C  0.69071130  0.92856852  0.68073148     0.13700
C1044       C  0.66383252  0.92101143  0.65527556    -0.20700
C1045       C  0.62707371  0.92530690  0.66332743    -0.07200
C1046       C  0.61733197  0.93868701  0.69765397     0.13700
C1047       C  0.57902633  0.94745171  0.70786628    -0.24000
H1048       H  0.63628287  0.95793419  0.74829036     0.15000
H1049       H  0.67175186  0.91064037  0.62931170     0.15000
C1050       C  0.72945897  0.92095540  0.67108623    -0.24000
H1051       H  0.56944203  0.92985540  0.73019689     0.05200
H1052       H  0.56001670  0.94461894  0.68516093     0.08400
H1053       H  0.57816208  0.97571351  0.71691517     0.08400
H1054       H  0.74836590  0.92759105  0.69320234     0.08400
H1055       H  0.73800297  0.93636967  0.64686301     0.08400
H1056       H  0.73219356  0.89215105  0.66551484     0.05200
C1057       C  0.44617189  0.13316402  0.66876068    -0.20600
C1058       C  0.41582539  0.14173743  0.64918807    -0.07200
C1059       C  0.39776892  0.17355341  0.65776548     0.13700
C1060       C  0.41476691  0.19891606  0.68030905    -0.20700
C1061       C  0.44706711  0.19131299  0.69787815    -0.07200
C1062       C  0.45809615  0.15515451  0.69662685     0.13700
C1063       C  0.47542997  0.13596456  0.72716628    -0.24000
H1064       H  0.45663654  0.10641373  0.66642610     0.15000
H1065       H  0.40169518  0.22392222  0.68515751     0.15000
C1066       C  0.36003849  0.18075271  0.64564925    -0.24000
H1067       H  0.45846174  0.11201756  0.73469222     0.05200
H1068       H  0.50256736  0.12683625  0.71894837     0.08400
H1069       H  0.47715596  0.15250140  0.75161775     0.08400
H1070       H  0.34271860  0.18633801  0.66937924     0.08400
H1071       H  0.34728907  0.15757425  0.63165597     0.08400
H1072       H  0.36054800  0.20446649  0.62777292     0.05200
C1073       C  0.52912398  0.19215700  0.65078231    -0.20600
C1074       C  0.55212949  0.21325123  0.67279742    -0.07200
C1075       C  0.58958921  0.20811428  0.67139948     0.13700
C1076       C  0.60312156  0.18323418  0.64663830    -0.20700
C1077       C  0.57961971  0.16280625  0.62443866    -0.07200
C1078       C  0.54226702  0.16727557  0.62655908     0.13700
C1079       C  0.51630740  0.14684706  0.60240103    -0.24000
H1080       H  0.50050891  0.19589642  0.65163452     0.15000
H1081       H  0.63202159  0.17982049  0.64438882     0.15000
C1082       C  0.61486600  0.22909455  0.69549585    -0.24000
H1083       H  0.48800323  0.15510900  0.60645638     0.05200
H1084       H  0.51721634  0.11776301  0.60800773     0.08400
H1085       H  0.52370498  0.15180305  0.57385838     0.08400
H1086       H  0.60778572  0.22348385  0.72399340     0.08400
H1087       H  0.61248725  0.25815854  0.69032944     0.08400
H1088       H  0.64344027  0.22197302  0.69083103     0.05200
C1089       C  0.53847776  0.84493793  0.31091591    -0.20600
C1090       C  0.53225814  0.81256693  0.32936481    -0.07200
C1091       C  0.54190588  0.81153525  0.36621770     0.13700
C1092       C  0.56405878  0.83928073  0.38011590    -0.20700
C1093       C  0.57033395  0.87093224  0.36065868    -0.07200
C1094       C  0.55276533  0.87508251  0.32770214     0.13700
C1095       C  0.54633005  0.91078321  0.31032413    -0.24000
H1096       H  0.53053311  0.84823897  0.28354187     0.15000
H1097       H  0.57523577  0.83643941  0.40665802     0.15000
C1098       C  0.52711738  0.78457483  0.39270701    -0.24000
H1099       H  0.51707644  0.91273394  0.30443462     0.05200
H1100       H  0.56176097  0.91308262  0.28468048     0.08400
H1101       H  0.55328851  0.93381789  0.32804864     0.08400
H1102       H  0.54925868  0.76870262  0.40370463     0.08400
H1103       H  0.50634826  0.76681572  0.38082350     0.08400
H1104       H  0.51376602  0.79867858  0.41525902     0.05200
C1105       C  0.39549094  0.78487769  0.33897436    -0.20600
C1106       C  0.41852808  0.79739453  0.31172860    -0.07200
C1107       C  0.41945691  0.83497471  0.30721439     0.13700
C1108       C  0.41361196  0.85717656  0.33708432    -0.20700
C1109       C  0.40148014  0.84322474  0.37031830    -0.07200
C1110       C  0.38754432  0.80655557  0.36912344     0.13700
C1111       C  0.36436087  0.78847402  0.39776270    -0.24000
H1112       H  0.38594236  0.75735313  0.33821258     0.15000
H1113       H  0.41711660  0.88561706  0.33346730     0.15000
C1114       C  0.42234093  0.85195431  0.27062898    -0.24000
H1115       H  0.35673710  0.76031493  0.39081232     0.05200
H1116       H  0.33822988  0.80205181  0.40045366     0.08400
H1117       H  0.37930600  0.78732511  0.42340374     0.08400
H1118       H  0.42461259  0.83147868  0.24914449     0.08400
H1119       H  0.44599413  0.87098175  0.26925803     0.08400
H1120       H  0.39754856  0.86703371  0.26548430     0.05200
C1121       C  0.06436707  0.33474656  0.79938226    -0.20600
C1122       C  0.06854664  0.30044654  0.81419210    -0.07200
C1123       C  0.09483104  0.29852976  0.84163267     0.13700
C1124       C  0.10801338  0.33085664  0.85765527    -0.20700
C1125       C  0.09181944  0.36379615  0.85105685    -0.07200
C1126       C  0.07003738  0.36550704  0.82023664     0.13700
C1127       C  0.05108873  0.39879891  0.80912835    -0.24000
H1128       H  0.05076625  0.33754051  0.77394936     0.15000
H1129       H  0.13174801  0.33045325  0.87417771     0.15000
C1130       C  0.11368246  0.26477311  0.85027580    -0.24000
H1131       H  0.02164410  0.39265345  0.80743138     0.05200
H1132       H  0.06122286  0.40775819  0.78240712     0.08400
H1133       H  0.05430927  0.42112275  0.82857235     0.08400
H1134       H  0.11509156  0.24723078  0.82629967     0.08400
H1135       H  0.10015881  0.25121802  0.87335437     0.08400
H1136       H  0.14213426  0.27078383  0.85812399     0.05200
C1137       C  0.95529650  0.34648929  0.88902140    -0.20600
C1138       C  0.91821513  0.34983278  0.88544488    -0.07200
C1139       C  0.89867135  0.32594152  0.86239150     0.13700
C1140       C  0.91736195  0.30067418  0.84214301    -0.20700
C1141       C  0.95462173  0.29723039  0.84589323    -0.07200
C1142       C  0.97340463  0.31950442  0.87101044     0.13700
C1143       C  0.01159823  0.31407002  0.88229769    -0.24000
H1144       H  0.96983438  0.36343566  0.90811693     0.15000
H1145       H  0.90277472  0.28357436  0.82326327     0.15000
C1146       C  0.85826508  0.32599966  0.85841169    -0.24000
H1147       H  0.01234673  0.30987986  0.91177516     0.05200
H1148       H  0.02829227  0.33825236  0.87584811     0.08400
H1149       H  0.02318509  0.29034410  0.86991527     0.08400
H1150       H  0.85140152  0.33271909  0.83033717     0.08400
H1151       H  0.84546615  0.34526862  0.87646881     0.08400
H1152       H  0.84652136  0.29906318  0.86497392     0.05200
C1153       C  0.81916167  0.41239785  0.85555066    -0.20600
C1154       C  0.84767647  0.43444844  0.86892670    -0.07200
C1155       C  0.86012449  0.46417758  0.84876242     0.13700
C1156       C  0.84284568  0.47161758  0.81658521    -0.20700
C1157       C  0.81333392  0.45060280  0.80417329    -0.07200
C1158       C  0.80243123  0.41962026  0.82308432     0.13700
C1159       C  0.77255759  0.39434062  0.81055626    -0.24000
H1160       H  0.80885196  0.38982873  0.87105417     0.15000
H1161       H  0.85118035  0.49535548  0.80221188     0.15000
C1162       C  0.88921115  0.49028986  0.86149828    -0.24000
H1163       H  0.75044254  0.39303786  0.83089710     0.05200
H1164       H  0.78335938  0.36715337  0.80713551     0.08400
H1165       H  0.76107341  0.40229076  0.78455859     0.08400
H1166       H  0.89926202  0.48423559  0.88857066     0.08400
H1167       H  0.87818343  0.51746847  0.86297173     0.08400
H1168       H  0.91233645  0.49059697  0.84227836     0.05200
C1169       C  0.80384544  0.57176354  0.81308859    -0.20600
C1170       C  0.81721384  0.55624352  0.78134498    -0.07200
C1171       C  0.85536601  0.55853695  0.77545061     0.13700
C1172       C  0.87786238  0.57324324  0.80206390    -0.20700
C1173       C  0.86472789  0.58474323  0.83544942    -0.07200
C1174       C  0.82666508  0.58383510  0.84091694     0.13700
C1175       C  0.80819051  0.59389191  0.87537790    -0.24000
H1176       H  0.77484393  0.57107268  0.81789040     0.15000
H1177       H  0.90685887  0.57407153  0.79722080     0.15000
C1178       C  0.87521957  0.54372976  0.74372553    -0.24000
H1179       H  0.78961747  0.57158302  0.88413224     0.05200
H1180       H  0.79215408  0.61811305  0.87127530     0.08400
H1181       H  0.82699348  0.59858395  0.89738625     0.08400
H1182       H  0.85823917  0.52768871  0.72584493     0.08400
H1183       H  0.89660703  0.52593003  0.75317602     0.08400
H1184       H  0.88824123  0.56600950  0.72817035     0.05200
C1185       C  0.14325755  0.32685313  0.10099743    -0.20600
C1186       C  0.12819456  0.35304385  0.07900489    -0.07200
C1187       C  0.14646491  0.36465239  0.04805183     0.13700
C1188       C  0.17798265  0.34772428  0.03816197    -0.20700
C1189       C  0.19428035  0.32242512  0.06035871    -0.07200
C1190       C  0.17664017  0.31201499  0.09248598     0.13700
C1191       C  0.19158684  0.28496999  0.11770068    -0.24000
H1192       H  0.12912376  0.31844046  0.12532503     0.15000
H1193       H  0.19083017  0.35553943  0.01341813     0.15000
C1194       C  0.13260498  0.39452474  0.02533809    -0.24000
H1195       H  0.17193089  0.26209307  0.12085979     0.05200
H1196       H  0.19602307  0.29763040  0.14436273     0.08400
H1197       H  0.21764272  0.27440531  0.10822089     0.08400
H1198       H  0.13277344  0.41981183  0.04093456     0.08400
H1199       H  0.10456572  0.38801016  0.01656980     0.08400
H1200       H  0.14979062  0.39942694  0.00123475     0.05200
C1201       C  0.20835946  0.39339746  0.94378269    -0.20600
C1202       C  0.17339669  0.38166975  0.93359168    -0.07200
C1203       C  0.16395216  0.34491218  0.93874860     0.13700
C1204       C  0.19173480  0.32087981  0.94424889    -0.20700
C1205       C  0.22535550  0.33262173  0.95806633    -0.07200
C1206       C  0.23338890  0.37023204  0.95822181     0.13700
C1207       C  0.26532065  0.38805426  0.97663304    -0.24000
H1208       H  0.21542478  0.42174965  0.94312126     0.15000
H1209       H  0.18488111  0.29245834  0.94425406     0.15000
C1210       C  0.12594427  0.33118176  0.94757082    -0.24000
H1211       H  0.27345576  0.37320093  0.00050926     0.05200
H1212       H  0.28812313  0.39161294  0.95732360     0.08400
H1213       H  0.25853765  0.41501905  0.98684431     0.08400
H1214       H  0.12546113  0.30262295  0.95578584     0.08400
H1215       H  0.10670309  0.33277151  0.92557558     0.08400
H1216       H  0.11525108  0.34636452  0.97062157     0.05200
C1217       C  0.93713325  0.17111736  0.88744194    -0.20600
C1218       C  0.91903741  0.14678540  0.86451839    -0.07200
C1219       C  0.90721965  0.16001648  0.83081851     0.13700
C1220       C  0.92342588  0.19127867  0.81715322    -0.20700
C1221       C  0.94488180  0.21358118  0.83869893    -0.07200
C1222       C  0.94675628  0.20591798  0.87579634     0.13700
C1223       C  0.95265975  0.23472628  0.90366041    -0.24000
H1224       H  0.94210453  0.16373211  0.91493405     0.15000
H1225       H  0.91889248  0.19864090  0.78944311     0.15000
C1226       C  0.87585037  0.14456056  0.80966841    -0.24000
H1227       H  0.95243753  0.22357527  0.93124820     0.05200
H1228       H  0.93020630  0.25361600  0.90237430     0.08400
H1229       H  0.97823746  0.24984857  0.89980644     0.08400
H1230       H  0.85818897  0.12608662  0.82556992     0.08400
H1231       H  0.88592456  0.13153288  0.78487823     0.08400
H1232       H  0.85801523  0.16645015  0.80167171     0.05200
C1233       C  0.85124297  0.05012241  0.80085328    -0.20600
C1234       C  0.85213264  0.03478341  0.83557492    -0.07200
C1235       C  0.82549708  0.00750588  0.84356244     0.13700
C1236       C  0.79874524  0.99848026  0.81812706    -0.20700
C1237       C  0.79632677  0.01704333  0.78561168    -0.07200
C1238       C  0.82270399  0.04367402  0.77723435     0.13700
C1239       C  0.81991637  0.06887885  0.74580443    -0.24000
H1240       H  0.87011969  0.07086432  0.79264619     0.15000
H1241       H  0.77836960  0.97788043  0.82439751     0.15000
C1242       C  0.82361438  0.98878629  0.87932616    -0.24000
H1243       H  0.82115805  0.09696234  0.75569866     0.05200
H1244       H  0.79426886  0.06570992  0.73099090     0.08400
H1245       H  0.84289343  0.06501478  0.72696253     0.08400
H1246       H  0.82060878  0.00842507  0.90145159     0.08400
H1247       H  0.84828145  0.97325763  0.88312917     0.08400
H1248       H  0.80015668  0.96953114  0.88109013     0.05200
C1249       C  0.08408540  0.15422829  0.84323730    -0.20600
C1250       C  0.07197036  0.15377965  0.87897790    -0.07200
C1251       C  0.04921651  0.18128767  0.89059201     0.13700
C1252       C  0.04162718  0.20939842  0.86723993    -0.20700
C1253       C  0.05405297  0.21050493  0.83162196    -0.07200
C1254       C  0.07452851  0.18142989  0.81935310     0.13700
C1255       C  0.08744034  0.17848762  0.78144009    -0.24000
H1256       H  0.10268679  0.13444134  0.83416611     0.15000
H1257       H  0.02548793  0.23062578  0.87679984     0.15000
C1258       C  0.03327513  0.18205781  0.92798746    -0.24000
H1259       H  0.11737507  0.17719506  0.78088662     0.05200
H1260       H  0.07986043  0.20161564  0.76546696     0.08400
H1261       H  0.07525868  0.15383883  0.76925044     0.08400
H1262       H  0.04375461  0.20615525  0.94250228     0.08400
H1263       H  0.03933541  0.15793130  0.94379548     0.08400
H1264       H  0.00351286  0.18305472  0.92648049     0.05200
C1265       C  0.16249478  0.16752942  0.00624947    -0.20600
C1266       C  0.16440216  0.15881651  0.96943297    -0.07200
C1267       C  0.18868546  0.18088372  0.94742668     0.13700
C1268       C  0.21206636  0.20651420  0.96317463    -0.20700
C1269       C  0.20952155  0.21542774  0.99921585    -0.07200
C1270       C  0.18339237  0.19671673  0.02083811     0.13700
C1271       C  0.17687117  0.20835656  0.05893831    -0.24000
H1272       H  0.14310607  0.15308597  0.02315796     0.15000
H1273       H  0.23093283  0.22190934  0.94634158     0.15000
C1274       C  0.19060715  0.18079036  0.90665896    -0.24000
H1275       H  0.15601082  0.19100818  0.07248103     0.05200
H1276       H  0.16727308  0.23617098  0.05899442     0.08400
H1277       H  0.20220261  0.20748167  0.07454787     0.08400
H1278       H  0.16931780  0.16502441  0.89277054     0.08400
H1279       H  0.21728698  0.17105198  0.89772990     0.08400
H1280       H  0.18796868  0.20856295  0.89669645     0.05200
C1281       C  0.33163534  0.01665798  0.72159684    -0.20600
C1282       C  0.29864488  0.00113460  0.71029721    -0.07200
C1283       C  0.29608570  0.98927695  0.67417978     0.13700
C1284       C  0.31985663  0.00446448  0.64877894    -0.20700
C1285       C  0.34907236  0.02633253  0.65996898    -0.07200
C1286       C  0.35863455  0.02541767  0.69669197     0.13700
C1287       C  0.39612652  0.03428948  0.71043346    -0.24000
H1288       H  0.33629917  0.02395981  0.74923574     0.15000
H1289       H  0.31528474  0.99961899  0.62047326     0.15000
C1290       C  0.26966445  0.96042086  0.66197496    -0.24000
H1291       H  0.40563640  0.01124873  0.72609159     0.05200
H1292       H  0.39571735  0.05808244  0.72833695     0.08400
H1293       H  0.41606180  0.03924206  0.68848859     0.08400
H1294       H  0.25418483  0.94882124  0.68483528     0.08400
H1295       H  0.25081497  0.97108524  0.64196413     0.08400
H1296       H  0.28466506  0.93836444  0.64931246     0.05200
C1297       C  0.13829128  0.07306506  0.83391290    -0.20600
C1298       C  0.15845379  0.07725107  0.86554562    -0.07200
C1299       C  0.19659057  0.07392915  0.86221033     0.13700
C1300       C  0.21306974  0.07447803  0.82812306    -0.20700
C1301       C  0.19318161  0.06644340  0.79705635    -0.07200
C1302       C  0.15475276  0.06544226  0.80050804     0.13700
C1303       C  0.12963599  0.05495442  0.77063226    -0.24000
H1304       H  0.10914756  0.07366419  0.83512434     0.15000
H1305       H  0.24230287  0.07333171  0.82663439     0.15000
C1306       C  0.22032015  0.06308292  0.89281057    -0.24000
H1307       H  0.11472336  0.07863961  0.76188038     0.05200
H1308       H  0.14368143  0.04316781  0.74759750     0.08400
H1309       H  0.10959410  0.03466253  0.78037975     0.08400
H1310       H  0.20442698  0.05482184  0.91694709     0.08400
H1311       H  0.23999162  0.08515072  0.89941467     0.08400
H1312       H  0.23572322  0.03924735  0.88479083     0.05200
C1313       C  0.13870052  0.96588732  0.78316323    -0.20600
C1314       C  0.17529936  0.96211243  0.79146816    -0.07200
C1315       C  0.18485257  0.94771587  0.82486393     0.13700
C1316       C  0.15772141  0.93884777  0.84951415    -0.20700
C1317       C  0.12119225  0.94106626  0.84055273    -0.07200
C1318       C  0.11140670  0.95575009  0.80734857     0.13700
C1319       C  0.07265568  0.96161739  0.79688316    -0.24000
H1320       H  0.13104481  0.97843636  0.75849364     0.15000
H1321       H  0.16544412  0.92738110  0.87483473     0.15000
C1322       C  0.22330674  0.94051997  0.83507879    -0.24000
H1323       H  0.06920168  0.98982286  0.78907001     0.05200
H1324       H  0.05313422  0.95623851  0.81909668     0.08400
H1325       H  0.06541586  0.94420282  0.77365926     0.08400
H1326       H  0.23220189  0.95912036  0.85680181     0.08400
H1327       H  0.24207555  0.94294198  0.81196113     0.08400
H1328       H  0.22538697  0.91284008  0.84494006     0.05200
C1329       C  0.81981531  0.31183646  0.01594091    -0.20600
C1330       C  0.78964947  0.30156146  0.99531029    -0.07200
C1331       C  0.78064016  0.32316831  0.96617647     0.13700
C1332       C  0.79838369  0.35611363  0.96140276    -0.20700
C1333       C  0.83000403  0.36670619  0.98053354    -0.07200
C1334       C  0.84050208  0.34356041  0.00861809     0.13700
C1335       C  0.87455770  0.35079890  0.02958026    -0.24000
H1336       H  0.82795833  0.29439674  0.03703107     0.15000
H1337       H  0.79003653  0.37015851  0.93790034     0.15000
C1338       C  0.75553425  0.31077075  0.93650346    -0.24000
H1339       H  0.87868558  0.32983770  0.05006753     0.05200
H1340       H  0.87285971  0.37679856  0.04382586     0.08400
H1341       H  0.89847567  0.35121514  0.01137653     0.08400
H1342       H  0.73182140  0.32813889  0.93553193     0.08400
H1343       H  0.74626975  0.28254333  0.93908430     0.08400
H1344       H  0.77012247  0.31268450  0.91033042     0.05200
C1345       C  0.79081869  0.15658852  0.05253269    -0.20600
C1346       C  0.78605738  0.19219721  0.06281725    -0.07200
C1347       C  0.81563923  0.21058059  0.07855357     0.13700
C1348       C  0.84992796  0.19661430  0.07605713    -0.20700
C1349       C  0.85612779  0.16092248  0.06631069    -0.07200
C1350       C  0.82493234  0.14036929  0.05456138     0.13700
C1351       C  0.82658446  0.10259819  0.04092102    -0.24000
H1352       H  0.76803173  0.14205663  0.04084913     0.15000
H1353       H  0.87169595  0.21482138  0.08238671     0.15000
C1354       C  0.81236505  0.24555530  0.09809494    -0.24000
H1355       H  0.80254672  0.09525557  0.02471827     0.05200
H1356       H  0.82543762  0.08367836  0.06369542     0.08400
H1357       H  0.85079182  0.09928306  0.02352483     0.08400
H1358       H  0.78490760  0.25556027  0.09705718     0.08400
H1359       H  0.83171998  0.26596580  0.08718218     0.08400
H1360       H  0.81906377  0.24159913  0.12676178     0.05200
C1361       C  0.84157891  0.16548355  0.92273269    -0.20600
C1362       C  0.83271921  0.12894924  0.92766918    -0.07200
C1363       C  0.80162681  0.11897031  0.94777122     0.13700
C1364       C  0.78079425  0.14566964  0.96319682    -0.20700
C1365       C  0.78890303  0.18225677  0.95775002    -0.07200
C1366       C  0.81988110  0.19229432  0.93722563     0.13700
C1367       C  0.82960548  0.23107445  0.92962799    -0.24000
H1368       H  0.86503574  0.17317443  0.90676409     0.15000
H1369       H  0.75843166  0.13759447  0.98022610     0.15000
C1370       C  0.79074611  0.08016478  0.95383492    -0.24000
H1371       H  0.85343224  0.23391486  0.91136018     0.05200
H1372       H  0.83642311  0.24555220  0.95477384     0.08400
H1373       H  0.80651698  0.24399474  0.91668505     0.08400
H1374       H  0.81352752  0.06587322  0.96580659     0.08400
H1375       H  0.78308203  0.06711799  0.92816066     0.08400
H1376       H  0.76698018  0.07724154  0.97214916     0.05200
C1377       C  0.07943677  0.80730410  0.17702064    -0.20600
C1378       C  0.04482912  0.80040261  0.16393334    -0.07200
C1379       C  0.03033228  0.82444355  0.13882871     0.13700
C1380       C  0.05099014  0.85405255  0.12727385    -0.20700
C1381       C  0.08477699  0.86225422  0.14169783    -0.07200
C1382       C  0.09946832  0.83826018  0.16727726     0.13700
C1383       C  0.13582251  0.84364396  0.18493640    -0.24000
H1384       H  0.08985071  0.78949517  0.19704557     0.15000
H1385       H  0.03953927  0.87205321  0.10797815     0.15000
C1386       C  0.99353551  0.82023146  0.12269368    -0.24000
H1387       H  0.14295736  0.82009234  0.20120154     0.05200
H1388       H  0.13585815  0.86640570  0.20394226     0.08400
H1389       H  0.15741957  0.84690447  0.16463867     0.08400
H1390       H  0.97988052  0.84580983  0.12554037     0.08400
H1391       H  0.97688420  0.79847842  0.13498767     0.08400
H1392       H  0.99614124  0.81505619  0.09343861     0.05200
C1393       C  0.94582296  0.70395663  0.14471602    -0.20600
C1394       C  0.93578833  0.71081588  0.18040181    -0.07200
C1395       C  0.91227219  0.68622466  0.19795276     0.13700
C1396       C  0.89979716  0.65565577  0.17945144    -0.20700
C1397       C  0.91327111  0.64628199  0.14494833    -0.07200
C1398       C  0.93602838  0.67179275  0.12705546     0.13700
C1399       C  0.95205409  0.66513631  0.09046385    -0.24000
H1400       H  0.96361136  0.72295296  0.13147348     0.15000
H1401       H  0.88039423  0.63833331  0.19328700     0.15000
C1402       C  0.90062238  0.69101000  0.23652646    -0.24000
H1403       H  0.97418211  0.68491049  0.08398614     0.05200
H1404       H  0.93117729  0.66826861  0.06971452     0.08400
H1405       H  0.96363816  0.63812771  0.08915613     0.08400
H1406       H  0.91156331  0.71627844  0.24848708     0.08400
H1407       H  0.91001419  0.66833225  0.25277234     0.08400
H1408       H  0.87065719  0.69146427  0.23816041     0.05200
C1409       C  0.93713066  0.83627953  0.19578919    -0.20600
C1410       C  0.93044802  0.79943039  0.18969400    -0.07200
C1411       C  0.90342502  0.79102718  0.16458350     0.13700
C1412       C  0.89556548  0.81626494  0.13816922    -0.20700
C1413       C  0.91143126  0.85160123  0.13763080    -0.07200
C1414       C  0.92972448  0.86225796  0.16968361     0.13700
C1415       C  0.94415763  0.89960714  0.17660274    -0.24000
H1416       H  0.95080190  0.84475137  0.22004590     0.15000
H1417       H  0.87531504  0.80781700  0.11907004     0.15000
C1418       C  0.87648906  0.76069608  0.17031408    -0.24000
H1419       H  0.95905902  0.90181305  0.20229295     0.05200
H1420       H  0.92131496  0.91782659  0.17902196     0.08400
H1421       H  0.96366456  0.90780342  0.15512941     0.08400
H1422       H  0.87861133  0.74970907  0.19771138     0.08400
H1423       H  0.88009205  0.73971048  0.14974762     0.08400
H1424       H  0.84855979  0.77049899  0.16821026     0.05200
C1425       C  0.05694118  0.68215095  0.17353308    -0.20600
C1426       C  0.04331366  0.71336471  0.15830443    -0.07200
C1427       C  0.04333071  0.71562840  0.12017393     0.13700
C1428       C  0.05493842  0.68687063  0.09951978    -0.20700
C1429       C  0.07004458  0.65663856  0.11456870    -0.07200
C1430       C  0.06977963  0.65368585  0.15254658     0.13700
C1431       C  0.08145084  0.62080260  0.17184471    -0.24000
H1432       H  0.05661927  0.67949162  0.20247212     0.15000
H1433       H  0.05352420  0.68866986  0.07053114     0.15000
C1434       C  0.03237375  0.74763725  0.09948032    -0.24000
H1435       H  0.08107602  0.62444333  0.20144870     0.05200
H1436       H  0.10926200  0.61445517  0.16409857     0.08400
H1437       H  0.06256546  0.59799837  0.16582695     0.08400
H1438       H  0.05290908  0.76944766  0.10291833     0.08400
H1439       H  0.00523206  0.75505215  0.10761331     0.08400
H1440       H  0.03107091  0.74259735  0.07011399     0.05200
C1441       C  0.67349592  0.15247991  0.10803123    -0.20600
C1442       C  0.64142149  0.14221220  0.08956862    -0.07200
C1443       C  0.63336030  0.16141557  0.05862192     0.13700
C1444       C  0.65963346  0.18537942  0.04433917    -0.20700
C1445       C  0.69416392  0.19250345  0.06023675    -0.07200
C1446       C  0.69867757  0.17832203  0.09489820     0.13700
C1447       C  0.72721978  0.19173040  0.12041935    -0.24000
H1448       H  0.67918692  0.14066938  0.13355002     0.15000
H1449       H  0.65238420  0.19631657  0.01908621     0.15000
C1450       C  0.59784026  0.15638704  0.03941291    -0.24000
H1451       H  0.71455777  0.19801873  0.14675288     0.05200
H1452       H  0.74010958  0.21698203  0.11104876     0.08400
H1453       H  0.74756990  0.17098859  0.12454350     0.08400
H1454       H  0.57615498  0.16906542  0.05520558     0.08400
H1455       H  0.59114282  0.12757753  0.03539436     0.08400
H1456       H  0.59834975  0.16927615  0.01259308     0.05200
C1457       C  0.69248238  0.07600653  0.80786481    -0.20600
C1458       C  0.67863799  0.06067263  0.77611512    -0.07200
C1459       C  0.64044283  0.05552620  0.77372104     0.13700
C1460       C  0.61857716  0.06260734  0.80374459    -0.20700
C1461       C  0.63285168  0.07503708  0.83649702    -0.07200
C1462       C  0.67088589  0.08037987  0.83869524     0.13700
C1463       C  0.69074963  0.08725237  0.87307951    -0.24000
H1464       H  0.72157576  0.07979670  0.81031216     0.15000
H1465       H  0.58946442  0.05904941  0.80153253     0.15000
C1466       C  0.62165737  0.04172096  0.74075067    -0.24000
H1467       H  0.71139384  0.06662177  0.87642830     0.05200
H1468       H  0.67312931  0.08494987  0.89681332     0.08400
H1469       H  0.70488804  0.11385058  0.87216406     0.08400
H1470       H  0.59226550  0.03649899  0.74539831     0.08400
H1471       H  0.63313317  0.01625175  0.73224599     0.08400
H1472       H  0.62406166  0.06206140  0.71927340     0.05200
C1473       C  0.66837827  0.16549470  0.90632306    -0.20600
C1474       C  0.64878462  0.14071526  0.92795509    -0.07200
C1475       C  0.66254636  0.13210283  0.96165894     0.13700
C1476       C  0.69131857  0.15326950  0.97532716    -0.20700
C1477       C  0.70654284  0.18233993  0.95571545    -0.07200
C1478       C  0.69675191  0.18679183  0.91990246     0.13700
C1479       C  0.71495529  0.21492666  0.89658394    -0.24000
H1480       H  0.66069696  0.16896515  0.87892039     0.15000
H1481       H  0.70130612  0.14769746  0.00182176     0.15000
C1482       C  0.64695451  0.10113341  0.98300165    -0.24000
H1483       H  0.70437485  0.21411412  0.86878780     0.05200
H1484       H  0.74448463  0.21060878  0.89525903     0.08400
H1485       H  0.71002481  0.24180401  0.90788581     0.08400
H1486       H  0.65256262  0.07575287  0.96880192     0.08400
H1487       H  0.61731113  0.10334816  0.98592749     0.08400
H1488       H  0.65903015  0.09989787  0.01013099     0.05200
C1489       C  0.51072952  0.16996561  0.84522879    -0.20600
C1490       C  0.54807160  0.16969797  0.85203391    -0.07200
C1491       C  0.57157512  0.19378457  0.83186854     0.13700
C1492       C  0.55766984  0.21349619  0.80405085    -0.20700
C1493       C  0.52150173  0.21094106  0.79542028    -0.07200
C1494       C  0.49712840  0.19015748  0.81689218     0.13700
C1495       C  0.45703825  0.18789566  0.81033744    -0.24000
H1496       H  0.49211699  0.15266759  0.86013233     0.15000
H1497       H  0.57561747  0.23026722  0.78757329     0.15000
C1498       C  0.61201749  0.19799115  0.83667748    -0.24000
H1499       H  0.44777361  0.15942222  0.80814095     0.05200
H1500       H  0.44257043  0.20028616  0.83321823     0.08400
H1501       H  0.44949458  0.20133954  0.78523520     0.08400
H1502       H  0.62524548  0.17225128  0.83238160     0.08400
H1503       H  0.61826017  0.20993956  0.86316001     0.08400
H1504       H  0.62490390  0.21665501  0.81686049     0.05200
C1505       C  0.27683818  0.18186330  0.03357825    -0.20600
C1506       C  0.29083762  0.21388707  0.01855323    -0.07200
C1507       C  0.32625396  0.21340091  0.00334181     0.13700
C1508       C  0.34894510  0.18525956  0.01186988    -0.20700
C1509       C  0.33647638  0.15669465  0.03352316    -0.07200
C1510       C  0.29847929  0.15218676  0.03772154     0.13700
C1511       C  0.28013370  0.11649914  0.04590008    -0.24000
H1512       H  0.24923790  0.17965431  0.04290015     0.15000
H1513       H  0.37728493  0.18719623  0.00423447     0.15000
C1514       C  0.34038651  0.24124969  0.97732642    -0.24000
H1515       H  0.26074495  0.10955880  0.02420120     0.05200
H1516       H  0.26483597  0.11779938  0.07164020     0.08400
H1517       H  0.29980837  0.09476063  0.04714393     0.08400
H1518       H  0.35198000  0.26476978  0.99176655     0.08400
H1519       H  0.31855498  0.24888878  0.95896337     0.08400
H1520       H  0.36232939  0.23054140  0.96023602     0.05200
C1521       C  0.49413501  0.83934895  0.16671914    -0.20600
C1522       C  0.45990263  0.83067569  0.15228465    -0.07200
C1523       C  0.44000499  0.80014463  0.16651896     0.13700
C1524       C  0.45387127  0.78186425  0.19540917    -0.20700
C1525       C  0.48599692  0.79290206  0.21160449    -0.07200
C1526       C  0.50710419  0.82128099  0.19664860     0.13700
C1527       C  0.54261507  0.83411943  0.21203815    -0.24000
H1528       H  0.50953681  0.86254011  0.15719055     0.15000
H1529       H  0.43797526  0.76007828  0.20746291     0.15000
C1530       C  0.40248617  0.78765645  0.15471598    -0.24000
H1531       H  0.54098137  0.86267913  0.22003473     0.05200
H1532       H  0.56428742  0.83164255  0.19145396     0.08400
H1533       H  0.55025064  0.81863204  0.23578229     0.08400
H1534       H  0.38339263  0.80985651  0.15505902     0.08400
H1535       H  0.39036607  0.76683124  0.17276317     0.08400
H1536       H  0.40373139  0.77486412  0.12789879     0.05200
C1537       C  0.66879017  0.90792239  0.83973973    -0.20600
C1538       C  0.64952787  0.93122758  0.86233043    -0.07200
C1539       C  0.64632129  0.96693890  0.85223606     0.13700
C1540       C  0.66369185  0.97892746  0.82094466    -0.20700
C1541       C  0.68452185  0.95681089  0.79881432    -0.07200
C1542       C  0.68647320  0.92031724  0.80812441     0.13700
C1543       C  0.70856185  0.89490913  0.78627697    -0.24000
H1544       H  0.67070024  0.88010451  0.84738444     0.15000
H1545       H  0.66217033  0.00659223  0.81499705     0.15000
C1546       C  0.62646924  0.99370030  0.87481114    -0.24000
H1547       H  0.70871061  0.86794389  0.79868620     0.05200
H1548       H  0.73693999  0.90525506  0.78418820     0.08400
H1549       H  0.69711962  0.89165058  0.75907154     0.08400
H1550       H  0.61433847  0.98223755  0.89967604     0.08400
H1551       H  0.60433779  0.00494002  0.85891729     0.08400
H1552       H  0.64562948  0.01562735  0.88294190     0.05200
C1553       C  0.34325136  0.94918436  0.80900654    -0.20600
C1554       C  0.35574698  0.96936806  0.83917248    -0.07200
C1555       C  0.33672281  0.00122299  0.84658962     0.13700
C1556       C  0.30823654  0.01192030  0.82377860    -0.20700
C1557       C  0.29664432  0.99127181  0.79397357    -0.07200
C1558       C  0.31430091  0.95889611  0.78740511     0.13700
C1559       C  0.30168360  0.93169319  0.75974801    -0.24000
H1560       H  0.35304397  0.92287060  0.80363451     0.15000
H1561       H  0.29449823  0.03640462  0.82966594     0.15000
C1562       C  0.34521143  0.02355460  0.87928276    -0.24000
H1563       H  0.29700442  0.90524309  0.77277203     0.05200
H1564       H  0.32275223  0.92915168  0.73854929     0.08400
H1565       H  0.27591538  0.93813960  0.74709813     0.08400
H1566       H  0.37327305  0.03473125  0.87727295     0.08400
H1567       H  0.34194388  0.00710830  0.90390878     0.08400
H1568       H  0.32692690  0.04642249  0.88191113     0.05200
C1569       C  0.16506353  0.70276002  0.98351384    -0.20600
C1570       C  0.20257235  0.69906110  0.98724774    -0.07200
C1571       C  0.21382873  0.66310153  0.98703434     0.13700
C1572       C  0.19081352  0.63694044  0.00293417    -0.20700
C1573       C  0.15417881  0.64381644  0.00941397    -0.07200
C1574       C  0.14060052  0.67471257  0.99286196     0.13700
C1575       C  0.10095913  0.67935057  0.98608239    -0.24000
H1576       H  0.15460123  0.72758257  0.97412570     0.15000
H1577       H  0.20052453  0.61024048  0.00701374     0.15000
C1578       C  0.23771445  0.64924395  0.95752611    -0.24000
H1579       H  0.09690574  0.68425100  0.95704769     0.05200
H1580       H  0.09119889  0.70265317  0.00151326     0.08400
H1581       H  0.08434775  0.65522274  0.99344025     0.08400
H1582       H  0.26079625  0.63500049  0.96865947     0.08400
H1583       H  0.24655312  0.67070684  0.93873496     0.08400
H1584       H  0.22213116  0.62949315  0.94092578     0.05200
C1585       C  0.36161273  0.82104235  0.05396531    -0.20600
C1586       C  0.35738473  0.85343106  0.07254594    -0.07200
C1587       C  0.32128595  0.86385023  0.07996170     0.13700
C1588       C  0.29190135  0.84085657  0.07026917    -0.20700
C1589       C  0.29695439  0.80769593  0.05319120    -0.07200
C1590       C  0.33294038  0.79655516  0.04954795     0.13700
C1591       C  0.34239402  0.75804484  0.04415809    -0.24000
H1592       H  0.38821657  0.81260859  0.04597869     0.15000
H1593       H  0.26527114  0.84988432  0.07582600     0.15000
C1594       C  0.31224156  0.89939488  0.09625945    -0.24000
H1595       H  0.36058593  0.74978890  0.06595715     0.05200
H1596       H  0.35647590  0.75434834  0.01801814     0.08400
H1597       H  0.31803757  0.74038547  0.04590145     0.08400
H1598       H  0.32288139  0.92150787  0.07905895     0.08400
H1599       H  0.32288194  0.90161145  0.12358252     0.08400
H1600       H  0.28260718  0.90284480  0.09863071     0.05200
C1601       C  0.14043568  0.85736628  0.95920294    -0.20600
C1602       C  0.14399961  0.86578822  0.92324931    -0.07200
C1603       C  0.17132318  0.84933576  0.90266454     0.13700
C1604       C  0.19679587  0.82860118  0.92012857    -0.20700
C1605       C  0.19119462  0.81709890  0.95566173    -0.07200
C1606       C  0.15827229  0.82817563  0.97291690     0.13700
C1607       C  0.13549252  0.80661383  0.99950100    -0.24000
H1608       H  0.11756372  0.86787493  0.97388990     0.15000
H1609       H  0.21869687  0.81811237  0.90453258     0.15000
C1610       C  0.17220623  0.84969162  0.86226282    -0.24000
H1611       H  0.10842130  0.81789149  0.00422054     0.05200
H1612       H  0.14734317  0.80589297  0.02610157     0.08400
H1613       H  0.12976663  0.77947149  0.98866071     0.08400
H1614       H  0.19909250  0.85939335  0.85255386     0.08400
H1615       H  0.15118826  0.86637034  0.85059081     0.08400
H1616       H  0.16758675  0.82196078  0.85214263     0.05200
C1617       C  0.29328941  0.85474887  0.97423727    -0.20600
C1618       C  0.27919776  0.82782463  0.95095484    -0.07200
C1619       C  0.29546318  0.82551200  0.91639084     0.13700
C1620       C  0.32277575  0.85088132  0.90591261    -0.20700
C1621       C  0.33568721  0.87789966  0.92944546    -0.07200
C1622       C  0.32046355  0.87984033  0.96388587     0.13700
C1623       C  0.33322394  0.90834232  0.98993985    -0.24000
H1624       H  0.28497105  0.85534994  0.00174761     0.15000
H1625       H  0.33420849  0.84946339  0.87908959     0.15000
C1626       C  0.28579808  0.79604197  0.89023985    -0.24000
H1627       H  0.31808222  0.90662920  0.01571369     0.05200
H1628       H  0.32908307  0.93523719  0.97842264     0.08400
H1629       H  0.36241649  0.90537850  0.99546167     0.08400
H1630       H  0.27609813  0.80786703  0.86494284     0.08400
H1631       H  0.26426484  0.77743069  0.90059015     0.08400
H1632       H  0.31013001  0.78041582  0.88413697     0.05200
C1633       C  0.21272554  0.85112479  0.03126848    -0.20600
C1634       C  0.21162466  0.81921577  0.05140061    -0.07200
C1635       C  0.18681081  0.81597599  0.08005553     0.13700
C1636       C  0.16284710  0.84384093  0.08641883    -0.20700
C1637       C  0.16439150  0.87561100  0.06606804    -0.07200
C1638       C  0.19015083  0.87935837  0.03848065     0.13700
C1639       C  0.19296278  0.91261173  0.01558783    -0.24000
H1640       H  0.22947720  0.85346033  0.00796203     0.15000
H1641       H  0.14294841  0.84058241  0.10727480     0.15000
C1642       C  0.18449664  0.78263244  0.10254312    -0.24000
H1643       H  0.21333584  0.91013946  0.99369137     0.05200
H1644       H  0.20111723  0.93616133  0.03215200     0.08400
H1645       H  0.16642132  0.91745067  0.00317686     0.08400
H1646       H  0.21098718  0.77859284  0.11542292     0.08400
H1647       H  0.17752820  0.75909743  0.08540202     0.08400
H1648       H  0.16356687  0.78444849  0.12399466     0.05200
C1649       C  0.21940506  0.95867425  0.20023809    -0.20600
C1650       C  0.21349034  0.99279311  0.21329105    -0.07200
C1651       C  0.18505732  0.01273668  0.19874131     0.13700
C1652       C  0.16384637  0.99775773  0.17142536    -0.20700
C1653       C  0.17033104  0.96376858  0.15757901    -0.07200
C1654       C  0.19846202  0.94351173  0.17317731     0.13700
C1655       C  0.20811335  0.90559801  0.16354160    -0.24000
H1656       H  0.24113532  0.94343138  0.21137174     0.15000
H1657       H  0.14190788  0.01308216  0.16136172     0.15000
C1658       C  0.17629972  0.05009094  0.20943863    -0.24000
H1659       H  0.20702496  0.88884378  0.18811344     0.05200
H1660       H  0.23612444  0.90558830  0.15254023     0.08400
H1661       H  0.19042529  0.89204918  0.14404251     0.08400
H1662       H  0.19732127  0.06231567  0.22625040     0.08400
H1663       H  0.14970025  0.04985107  0.22339498     0.08400
H1664       H  0.17464072  0.06719352  0.18521819     0.05200
C1665       C  0.34288277  0.09377346  0.22049388    -0.20600
C1666       C  0.30771954  0.07821235  0.21711798    -0.07200
C1667       C  0.29144817  0.08223449  0.18337704     0.13700
C1668       C  0.31255262  0.08914396  0.15304893    -0.20700
C1669       C  0.34906302  0.10046740  0.15491682    -0.07200
C1670       C  0.36396103  0.10450028  0.18994137     0.13700
C1671       C  0.40174898  0.11893760  0.19614866    -0.24000
H1672       H  0.35491597  0.09676031  0.24638778     0.15000
H1673       H  0.29957327  0.08552853  0.12730954     0.15000
C1674       C  0.25143916  0.08041868  0.17868794    -0.24000
H1675       H  0.40782852  0.12153171  0.22519892     0.05200
H1676       H  0.40500132  0.14587340  0.18449452     0.08400
H1677       H  0.42168311  0.10058519  0.18463466     0.08400
H1678       H  0.23881966  0.09741197  0.19945022     0.08400
H1679       H  0.24165067  0.05247146  0.17970615     0.08400
H1680       H  0.24333383  0.09092000  0.15218786     0.05200
C1681       C  0.36168118  0.96803163  0.30517395    -0.20600
C1682       C  0.32379121  0.96227344  0.30442685    -0.07200
C1683       C  0.30783759  0.94029552  0.33127586     0.13700
C1684       C  0.32873935  0.92845637  0.35983270    -0.20700
C1685       C  0.36544368  0.93915221  0.36401241    -0.07200
C1686       C  0.38261889  0.95741212  0.33486893     0.13700
C1687       C  0.42247742  0.96688814  0.33521649    -0.24000
H1688       H  0.37479616  0.98231256  0.28326432     0.15000
H1689       H  0.31560348  0.91149699  0.37988432     0.15000
C1690       C  0.26856741  0.92891009  0.33000590    -0.24000
H1691       H  0.43128337  0.98131253  0.31078722     0.05200
H1692       H  0.43862516  0.94267130  0.33466343     0.08400
H1693       H  0.42926775  0.98356912  0.35908520     0.08400
H1694       H  0.26105618  0.90941538  0.35146409     0.08400
H1695       H  0.25170656  0.95248581  0.33399151     0.08400
H1696       H  0.26262515  0.91602051  0.30373968     0.05200
C1697       C  0.37399682  0.95654535  0.17192754    -0.20600
C1698       C  0.36888915  0.91989567  0.17230790    -0.07200
C1699       C  0.34369353  0.90365570  0.19666295     0.13700
C1700       C  0.32421364  0.92548661  0.22032962    -0.20700
C1701       C  0.32900756  0.96289306  0.21970836    -0.07200
C1702       C  0.35456515  0.97826648  0.19479825     0.13700
C1703       C  0.36218532  0.01735159  0.19056064    -0.24000
H1704       H  0.39370999  0.96832577  0.15329882     0.15000
H1705       H  0.30429299  0.91344436  0.23850177     0.15000
C1706       C  0.33587224  0.86381619  0.19653174    -0.24000
H1707       H  0.33807006  0.02917769  0.17954656     0.05200
H1708       H  0.37097448  0.02908649  0.21608054     0.08400
H1709       H  0.38432903  0.02374186  0.17101904     0.08400
H1710       H  0.35986563  0.84934456  0.20530782     0.08400
H1711       H  0.32820021  0.85473936  0.16916425     0.08400
H1712       H  0.31325027  0.85630797  0.21511084     0.05200
C1713       C  0.35471055  0.05281876  0.29439104    -0.20600
C1714       C  0.31957483  0.06290506  0.30238170    -0.07200
C1715       C  0.31217475  0.07683383  0.33676222     0.13700
C1716       C  0.34058322  0.08144147  0.36114461    -0.20700
C1717       C  0.37654917  0.07467819  0.35128734    -0.07200
C1718       C  0.38350784  0.05992944  0.31704488     0.13700
C1719       C  0.42093099  0.05330337  0.30241014    -0.24000
H1720       H  0.35977672  0.03911601  0.26974012     0.15000
H1721       H  0.33450056  0.09207591  0.38722835     0.15000
C1722       C  0.27483463  0.08708059  0.34849898    -0.24000
H1723       H  0.43051737  0.07635881  0.28581960     0.05200
H1724       H  0.44038635  0.04825468  0.32416205     0.08400
H1725       H  0.42041695  0.03030997  0.28362651     0.08400
H1726       H  0.25480096  0.08365895  0.32682250     0.08400
H1727       H  0.26578964  0.07038903  0.37168795     0.08400
H1728       H  0.27534435  0.11568265  0.35673817     0.05200
C1729       C  0.53974232  0.78815192  0.69929475    -0.20600
C1730       C  0.50256280  0.78950999  0.70252984    -0.07200
C1731       C  0.48252100  0.80925295  0.67821735     0.13700
C1732       C  0.50099723  0.82809929  0.65073815    -0.20700
C1733       C  0.53909361  0.82843076  0.64838538    -0.07200
C1734       C  0.55859707  0.80704024  0.67309561     0.13700
C1735       C  0.59943867  0.80524513  0.67513161    -0.24000
H1736       H  0.55442900  0.77318718  0.71893476     0.15000
H1737       H  0.48558865  0.84441402  0.63305948     0.15000
C1738       C  0.44222588  0.81177643  0.68237045    -0.24000
H1739       H  0.61068296  0.79218887  0.65104489     0.05200
H1740       H  0.60834309  0.78882677  0.69801695     0.08400
H1741       H  0.61191028  0.83205963  0.67963418     0.08400
H1742       H  0.43580816  0.82341964  0.70901651     0.08400
H1743       H  0.42909571  0.78480752  0.68015989     0.08400
H1744       H  0.43072658  0.82902084  0.66143094     0.05200
C1745       C  0.45221975  0.80217525  0.85325391    -0.20600
C1746       C  0.43705242  0.79401071  0.81948443    -0.07200
C1747       C  0.40729053  0.81364017  0.80862418     0.13700
C1748       C  0.39708430  0.84356288  0.82889687    -0.20700
C1749       C  0.41558087  0.85465523  0.86040473    -0.07200
C1750       C  0.44092569  0.83110097  0.87448911     0.13700
C1751       C  0.45733958  0.83638567  0.91101025    -0.24000
H1752       H  0.47583630  0.78882839  0.86174888     0.15000
H1753       H  0.37511481  0.85915540  0.81903468     0.15000
C1754       C  0.38660485  0.80449975  0.77502266    -0.24000
H1755       H  0.47976535  0.81794335  0.91560216     0.05200
H1756       H  0.43641025  0.83046093  0.93185370     0.08400
H1757       H  0.46818960  0.86409173  0.91440670     0.08400
H1758       H  0.39665726  0.78040289  0.76116210     0.08400
H1759       H  0.38854880  0.82739671  0.75615734     0.08400
H1760       H  0.35770956  0.79911452  0.78206245     0.05200
C1761       C  0.59769082  0.82562957  0.84163426    -0.20600
C1762       C  0.57692752  0.85110258  0.86015070    -0.07200
C1763       C  0.54178778  0.85699810  0.84845555     0.13700
C1764       C  0.52629785  0.83313756  0.82387145    -0.20700
C1765       C  0.54468046  0.80353992  0.80964454    -0.07200
C1766       C  0.58224876  0.80270383  0.81539429     0.13700
C1767       C  0.60657776  0.77853238  0.79454890    -0.24000
H1768       H  0.62594889  0.82302122  0.84823814     0.15000
H1769       H  0.49884508  0.83795351  0.81708981     0.15000
C1770       C  0.51976532  0.88764007  0.86193255    -0.24000
H1771       H  0.62814899  0.79501914  0.78101398     0.05200
H1772       H  0.59196917  0.76319673  0.77340652     0.08400
H1773       H  0.61939655  0.75950325  0.81292402     0.08400
H1774       H  0.53064062  0.91306108  0.85033208     0.08400
H1775       H  0.52006091  0.88894751  0.89164017     0.08400
H1776       H  0.49119169  0.88525851  0.85328207     0.05200
C1777       C  0.42881870  0.33542963  0.66027893    -0.20600
C1778       C  0.43642743  0.32580015  0.62459117    -0.07200
C1779       C  0.44985412  0.29115103  0.61776838     0.13700
C1780       C  0.45396959  0.26731538  0.64633584    -0.20700
C1781       C  0.44618983  0.27685595  0.68200798    -0.07200
C1782       C  0.43190999  0.31102690  0.68859371     0.13700
C1783       C  0.42001938  0.32255375  0.72558978    -0.24000
H1784       H  0.41824454  0.36150668  0.66611916     0.15000
H1785       H  0.46524104  0.24165764  0.64071467     0.15000
C1786       C  0.46004874  0.27830826  0.58054259    -0.24000
H1787       H  0.39139453  0.33012042  0.72513407     0.05200
H1788       H  0.43675208  0.34603194  0.73461992     0.08400
H1789       H  0.42190930  0.30081557  0.74549147     0.08400
H1790       H  0.46133645  0.30019543  0.56054306     0.08400
H1791       H  0.44045673  0.25694632  0.57181531     0.08400
H1792       H  0.48698536  0.26678994  0.58000898     0.05200
C1793       C  0.42683802  0.67776951  0.29420950    -0.20600
C1794       C  0.43027516  0.70870006  0.31568458    -0.07200
C1795       C  0.42731468  0.70439261  0.35350658     0.13700
C1796       C  0.41928131  0.67046355  0.36760600    -0.20700
C1797       C  0.42100761  0.63919393  0.34658539    -0.07200
C1798       C  0.42820433  0.64357138  0.30937626     0.13700
C1799       C  0.44316336  0.61451189  0.28586711    -0.24000
H1800       H  0.43141961  0.68025934  0.26553556     0.15000
H1801       H  0.41498317  0.66893578  0.39607583     0.15000
C1802       C  0.43833222  0.73267605  0.38059082    -0.24000
H1803       H  0.46835384  0.62468745  0.27236619     0.05200
H1804       H  0.42327830  0.60657581  0.26493771     0.08400
H1805       H  0.45098360  0.59083747  0.30150932     0.08400
H1806       H  0.41524858  0.73809297  0.39863047     0.08400
H1807       H  0.44869991  0.75765860  0.36812567     0.08400
H1808       H  0.46020668  0.72305504  0.39773299     0.05200
C1809       C  0.49162754  0.67296074  0.65045711    -0.20600
C1810       C  0.45464182  0.67154309  0.64177056    -0.07200
C1811       C  0.43050390  0.69278881  0.66342461     0.13700
C1812       C  0.44383865  0.71186898  0.69280958    -0.20700
C1813       C  0.47993931  0.71217592  0.70205988    -0.07200
C1814       C  0.50463074  0.69346726  0.68011640     0.13700
C1815       C  0.54460510  0.69497178  0.68687644    -0.24000
H1816       H  0.51036366  0.65773693  0.63452514     0.15000
H1817       H  0.42546645  0.72681432  0.70958506     0.15000
C1818       C  0.38980323  0.69551584  0.65795017    -0.24000
H1819       H  0.55899787  0.70650216  0.66308991     0.05200
H1820       H  0.55412055  0.66754904  0.69160994     0.08400
H1821       H  0.55179642  0.71171330  0.71043060     0.08400
H1822       H  0.37523852  0.66941971  0.66066518     0.08400
H1823       H  0.38345138  0.70809051  0.63211014     0.08400
H1824       H  0.37708160  0.71285441  0.67844513     0.05200
C1825       C  0.55447958  0.33484971  0.62087611    -0.20600
C1826       C  0.55445148  0.36763740  0.63917257    -0.07200
C1827       C  0.54099046  0.36733601  0.67455196     0.13700
C1828       C  0.54220324  0.33594579  0.69406303    -0.20700
C1829       C  0.54278475  0.30219649  0.67715133    -0.07200
C1830       C  0.54798131  0.30211541  0.63903876     0.13700
C1831       C  0.54904784  0.26900666  0.61654870    -0.24000
H1832       H  0.56238169  0.33424679  0.59290697     0.15000
H1833       H  0.53865755  0.33826488  0.72274730     0.15000
C1834       C  0.52242269  0.39862123  0.69149624    -0.24000
H1835       H  0.57383111  0.25451841  0.62215883     0.05200
H1836       H  0.55009876  0.27503246  0.58738066     0.08400
H1837       H  0.52449850  0.25248495  0.62152407     0.08400
H1838       H  0.52058028  0.42133377  0.67254367     0.08400
H1839       H  0.53679981  0.40755883  0.71615253     0.08400
H1840       H  0.49433032  0.39020052  0.69915890     0.05200
C1841       C  0.64747097  0.44648455  0.70069432    -0.20600
C1842       C  0.64342157  0.46631333  0.66860479    -0.07200
C1843       C  0.66641566  0.49727521  0.66370712     0.13700
C1844       C  0.69119260  0.50711586  0.69062515    -0.20700
C1845       C  0.69589938  0.48565891  0.72082435    -0.07200
C1846       C  0.67370124  0.45499971  0.72599099     0.13700
C1847       C  0.67942507  0.42797300  0.75526965    -0.24000
H1848       H  0.63369319  0.42079106  0.70434987     0.15000
H1849       H  0.70949296  0.53005147  0.68660218     0.15000
C1850       C  0.66780332  0.51882131  0.62962561    -0.24000
H1851       H  0.65509578  0.42615276  0.77291935     0.05200
H1852       H  0.70322229  0.43427297  0.77196705     0.08400
H1853       H  0.68378907  0.40127550  0.74308083     0.08400
H1854       H  0.64225990  0.53309738  0.62652969     0.08400
H1855       H  0.67313056  0.50125053  0.60622421     0.08400
H1856       H  0.68986990  0.53970282  0.62996752     0.05200
C1857       C  0.51941484  0.69938679  0.35552104    -0.20600
C1858       C  0.53887367  0.72628914  0.33663522    -0.07200
C1859       C  0.57617935  0.73135519  0.34341931     0.13700
C1860       C  0.59200223  0.70985192  0.36948639    -0.20700
C1861       C  0.57128742  0.68393673  0.38898352    -0.07200
C1862       C  0.53413139  0.68004025  0.38302142     0.13700
C1863       C  0.50886704  0.65645304  0.40551442    -0.24000
H1864       H  0.49191828  0.69335426  0.34929722     0.15000
H1865       H  0.62092273  0.71250820  0.37363331     0.15000
C1866       C  0.60032673  0.75737619  0.32288397    -0.24000
H1867       H  0.48656520  0.67240552  0.41645880     0.05200
H1868       H  0.52207656  0.64494560  0.42912092     0.08400
H1869       H  0.49709882  0.63447784  0.38875410     0.08400
H1870       H  0.61262697  0.77729371  0.34169876     0.08400
H1871       H  0.58578079  0.77189691  0.30194057     0.08400
H1872       H  0.62226838  0.74266724  0.30939567     0.05200
C1873       C  0.18106642  0.48627634  0.77812550    -0.20600
C1874       C  0.21568000  0.49905174  0.78830014    -0.07200
C1875       C  0.22026549  0.50830736  0.82514266     0.13700
C1876       C  0.19464740  0.49602043  0.85083359    -0.20700
C1877       C  0.16206158  0.47877245  0.84055662    -0.07200
C1878       C  0.15334148  0.48024048  0.80351257     0.13700
C1879       C  0.11512010  0.47712438  0.78988708    -0.24000
H1880       H  0.17494058  0.48043746  0.75046693     0.15000
H1881       H  0.20040892  0.49957769  0.87910930     0.15000
C1882       C  0.25017849  0.53294478  0.83820208    -0.24000
H1883       H  0.10919408  0.50150640  0.77434751     0.05200
H1884       H  0.09498486  0.47521655  0.81209205     0.08400
H1885       H  0.11189043  0.45358933  0.77180066     0.08400
H1886       H  0.26340684  0.54718156  0.81561385     0.08400
H1887       H  0.27003845  0.51787357  0.85378803     0.08400
H1888       H  0.23881244  0.55398509  0.85571766     0.05200
C1889       C  0.31008104  0.41232853  0.68426536    -0.20600
C1890       C  0.30722058  0.44906938  0.67864993    -0.07200
C1891       C  0.32311258  0.46373464  0.64650952     0.13700
C1892       C  0.35004069  0.44499098  0.62879268    -0.20700
C1893       C  0.35629698  0.40957343  0.63722242    -0.07200
C1894       C  0.33409904  0.39231255  0.66378905     0.13700
C1895       C  0.33564466  0.35326572  0.67240076    -0.24000
H1896       H  0.29549738  0.39964555  0.70642355     0.15000
H1897       H  0.36323444  0.45655310  0.60518536     0.15000
C1898       C  0.30821258  0.49446306  0.62588206    -0.24000
H1899       H  0.33962812  0.34997238  0.70163100     0.05200
H1900       H  0.35803794  0.34042985  0.65838453     0.08400
H1901       H  0.30970349  0.33956629  0.66505213     0.08400
H1902       H  0.31546737  0.52016246  0.63849575     0.08400
H1903       H  0.27849355  0.49059351  0.62301035     0.08400
H1904       H  0.31936045  0.49619367  0.59811748     0.05200
C1905       C  0.31025631  0.58248236  0.67740552    -0.20600
C1906       C  0.32730689  0.55854804  0.70004809    -0.07200
C1907       C  0.36227370  0.54760815  0.69046957     0.13700
C1908       C  0.37698417  0.55627662  0.65695543    -0.20700
C1909       C  0.36109322  0.58148267  0.63503461    -0.07200
C1910       C  0.32744532  0.59533837  0.64590726     0.13700
C1911       C  0.30929214  0.62327958  0.62448484    -0.24000
H1912       H  0.28297579  0.59028065  0.68389377     0.15000
H1913       H  0.40375442  0.54725401  0.64995211     0.15000
C1914       C  0.38473036  0.52728379  0.71559006    -0.24000
H1915       H  0.28449580  0.63250680  0.63813312     0.05200
H1916       H  0.30124144  0.61148432  0.59838360     0.08400
H1917       H  0.32765656  0.64699560  0.62071452     0.08400
H1918       H  0.41073511  0.51908989  0.70345110     0.08400
H1919       H  0.36893262  0.50337874  0.72286989     0.08400
H1920       H  0.39082557  0.54394306  0.73956591     0.05200
C1921       C  0.31304785  0.31732618  0.09554921    -0.20600
C1922       C  0.28083930  0.33003839  0.08093590    -0.07200
C1923       C  0.27668229  0.36792935  0.08216425     0.13700
C1924       C  0.30648201  0.39062813  0.09015667    -0.20700
C1925       C  0.34026352  0.37801490  0.10020288    -0.07200
C1926       C  0.34284672  0.34039907  0.10444346     0.13700
C1927       C  0.37670770  0.32362469  0.11681790    -0.24000
H1928       H  0.31631531  0.28863396  0.09663174     0.15000
H1929       H  0.30357211  0.41923944  0.08729342     0.15000
C1930       C  0.24235415  0.38642251  0.07446181    -0.24000
H1931       H  0.37419300  0.29394093  0.11678928     0.05200
H1932       H  0.38175750  0.33208675  0.14464350     0.08400
H1933       H  0.39969248  0.33100465  0.09883541     0.08400
H1934       H  0.23559105  0.38289078  0.04608177     0.08400
H1935       H  0.22079819  0.37680546  0.09318558     0.08400
H1936       H  0.24470138  0.41582956  0.07877038     0.05200
C1937       C  0.55618789  0.67721963  0.86594700    -0.20600
C1938       C  0.55700286  0.64457949  0.84681445    -0.07200
C1939       C  0.55034525  0.64653286  0.80944779     0.13700
C1940       C  0.55222108  0.67970178  0.79200974    -0.20700
C1941       C  0.54745050  0.71200717  0.81072388    -0.07200
C1942       C  0.55137389  0.71067013  0.84875607     0.13700
C1943       C  0.55494355  0.74385798  0.87162822    -0.24000
H1944       H  0.56141353  0.67717444  0.89440724     0.15000
H1945       H  0.54927200  0.67951421  0.76315119     0.15000
C1946       C  0.53475715  0.61553985  0.78788358    -0.24000
H1947       H  0.55416067  0.73746223  0.90068002     0.05200
H1948       H  0.53344119  0.76285844  0.86656093     0.08400
H1949       H  0.58174524  0.75682812  0.86672442     0.08400
H1950       H  0.52663496  0.59239565  0.80504897     0.08400
H1951       H  0.55428145  0.60752162  0.76673827     0.08400
H1952       H  0.50961757  0.62374344  0.77454694     0.05200
C1953       C  0.65301442  0.50735377  0.84474895    -0.20600
C1954       C  0.63847004  0.54030142  0.83457014    -0.07200
C1955       C  0.65719976  0.55939715  0.80577955     0.13700
C1956       C  0.68592077  0.54377945  0.78731963    -0.20700
C1957       C  0.70027187  0.51164856  0.79789685    -0.07200
C1958       C  0.68419715  0.49354813  0.82771679     0.13700
C1959       C  0.69994953  0.46043466  0.84311390    -0.24000
H1960       H  0.64184876  0.49359493  0.86806838     0.15000
H1961       H  0.69887852  0.55791616  0.76502341     0.15000
C1962       C  0.65054972  0.59782357  0.79516062    -0.24000
H1963       H  0.70674463  0.46518952  0.87173236     0.05200
H1964       H  0.72503430  0.45291091  0.82901482     0.08400
H1965       H  0.67992325  0.43774448  0.84134105     0.08400
H1966       H  0.67286055  0.60936090  0.77821467     0.08400
H1967       H  0.64921476  0.61568558  0.81887825     0.08400
H1968       H  0.62603064  0.59932496  0.77851516     0.05200
C1969       C  0.46269407  0.71324079  0.85416941    -0.20600
C1970       C  0.44444760  0.71137365  0.82148918    -0.07200
C1971       C  0.42436203  0.68009528  0.81258051     0.13700
C1972       C  0.42150355  0.65255879  0.83762789    -0.20700
C1973       C  0.43670282  0.65655606  0.87179155    -0.07200
C1974       C  0.45914295  0.68639325  0.87958041     0.13700
C1975       C  0.47982917  0.68947113  0.91432596    -0.24000
H1976       H  0.48198613  0.73434044  0.85887789     0.15000
H1977       H  0.40593793  0.62872931  0.83090283     0.15000
C1978       C  0.40648529  0.67550796  0.77660006    -0.24000
H1979       H  0.49697845  0.71428266  0.91529809     0.05200
H1980       H  0.46158915  0.69034802  0.93797097     0.08400
H1981       H  0.49736481  0.66613675  0.91706417     0.08400
H1982       H  0.42725304  0.67496117  0.75505296     0.08400
H1983       H  0.38822130  0.69796903  0.77190614     0.08400
H1984       H  0.39023215  0.65004428  0.77495282     0.05200
C1985       C  0.32070044  0.58443538  0.79390516    -0.20600
C1986       C  0.33090685  0.54964035  0.78596534    -0.07200
C1987       C  0.35661518  0.53428493  0.80899592     0.13700
C1988       C  0.36725499  0.55099591  0.84070951    -0.20700
C1989       C  0.35472723  0.58402071  0.85043936    -0.07200
C1990       C  0.33231951  0.60209259  0.82555453     0.13700
C1991       C  0.32140296  0.64015700  0.83031841    -0.24000
H1992       H  0.30183418  0.59707670  0.77625949     0.15000
H1993       H  0.38553090  0.53751292  0.85840204     0.15000
C1994       C  0.37535873  0.50096705  0.80128772    -0.24000
H1995       H  0.30414251  0.64309682  0.85439682     0.05200
H1996       H  0.34588373  0.65779021  0.83124445     0.08400
H1997       H  0.30533691  0.64949163  0.80734083     0.08400
H1998       H  0.40487988  0.50654219  0.79802905     0.08400
H1999       H  0.36523822  0.48952747  0.77678239     0.08400
H2000       H  0.37074361  0.48265494  0.82409146     0.05200
C2001       C  0.32750582  0.65781974  0.99155321    -0.20600
C2002       C  0.34086642  0.66155925  0.95618117    -0.07200
C2003       C  0.32825082  0.69039577  0.93468749     0.13700
C2004       C  0.30321507  0.71305815  0.94871422    -0.20700
C2005       C  0.28857181  0.70824178  0.98255807    -0.07200
C2006       C  0.30110115  0.68088491  0.00504004     0.13700
C2007       C  0.28622410  0.67451365  0.04230383    -0.24000
H2008       H  0.33641702  0.63629198  0.00828272     0.15000
H2009       H  0.29389535  0.73460806  0.93224159     0.15000
C2010       C  0.33937080  0.69974922  0.89651275    -0.24000
H2011       H  0.30851603  0.67660495  0.06201242     0.05200
H2012       H  0.27352587  0.64722738  0.04385350     0.08400
H2013       H  0.26553735  0.69403290  0.04994015     0.08400
H2014       H  0.35739265  0.68116918  0.88326643     0.08400
H2015       H  0.35325724  0.72654994  0.89620673     0.08400
H2016       H  0.31492081  0.70106067  0.87956586     0.05200
C2017       C  0.36433106  0.36073506  0.96018943    -0.20600
C2018       C  0.36083045  0.35892316  0.92350303    -0.07200
C2019       C  0.33202825  0.33800667  0.90843066     0.13700
C2020       C  0.30668207  0.32069408  0.93111396    -0.20700
C2021       C  0.30975627  0.32253619  0.96854954    -0.07200
C2022       C  0.34041970  0.34194231  0.98278979     0.13700
C2023       C  0.34846961  0.34532983  0.02145155    -0.24000
H2024       H  0.38749026  0.37550124  0.97115769     0.15000
H2025       H  0.28441531  0.30532957  0.91933889     0.15000
C2026       C  0.32668923  0.33359022  0.86871704    -0.24000
H2027       H  0.37031667  0.36554827  0.02742770     0.05200
H2028       H  0.32395381  0.35498633  0.03372770     0.08400
H2029       H  0.35765458  0.31977413  0.03235560     0.08400
H2030       H  0.32880126  0.30498130  0.86117434     0.08400
H2031       H  0.34654353  0.34976693  0.85300783     0.08400
H2032       H  0.29939483  0.34253730  0.86143548     0.05200
C2033       C  0.38291047  0.41721659  0.78448956    -0.20600
C2034       C  0.37172320  0.41503585  0.82069567    -0.07200
C2035       C  0.33452548  0.42053123  0.82795408     0.13700
C2036       C  0.31072569  0.42604706  0.79915100    -0.20700
C2037       C  0.32340143  0.43563822  0.76447582    -0.07200
C2038       C  0.36052084  0.42807193  0.75665150     0.13700
C2039       C  0.38142880  0.43558357  0.72241244    -0.24000
H2040       H  0.41131348  0.41473216  0.77799546     0.15000
H2041       H  0.28234690  0.42953941  0.80531717     0.15000
C2042       C  0.31988377  0.42626790  0.86528400    -0.24000
H2043       H  0.40610645  0.45229091  0.72819939     0.05200
H2044       H  0.36721807  0.45033247  0.70235794     0.08400
H2045       H  0.39036023  0.40998633  0.71063358     0.08400
H2046       H  0.33237059  0.45113746  0.87664473     0.08400
H2047       H  0.32512339  0.40363382  0.88284538     0.08400
H2048       H  0.29017089  0.42970739  0.86550580     0.05200
C2049       C  0.46024188  0.28010483  0.80582045    -0.20600
C2050       C  0.49602048  0.28545319  0.79594315    -0.07200
C2051       C  0.51786437  0.31129972  0.81376275     0.13700
C2052       C  0.50188247  0.33350354  0.83973113    -0.20700
C2053       C  0.46449999  0.33042904  0.84747332    -0.07200
C2054       C  0.44368809  0.30201172  0.83048241     0.13700
C2055       C  0.40307564  0.29583357  0.83391043    -0.24000
H2056       H  0.44401091  0.26046117  0.79121880     0.15000
H2057       H  0.51818654  0.35474711  0.85179102     0.15000
C2058       C  0.55751362  0.31579103  0.80503091    -0.24000
H2059       H  0.39500419  0.28711590  0.86119678     0.05200
H2060       H  0.39257756  0.27408398  0.81606403     0.08400
H2061       H  0.38898582  0.31986600  0.82552413     0.08400
H2062       H  0.56156179  0.32186343  0.77620780     0.08400
H2063       H  0.57132137  0.29074698  0.81137550     0.08400
H2064       H  0.57047945  0.33784121  0.82085751     0.05200
C2065       C  0.55531220  0.69380522  0.18065390    -0.20600
C2066       C  0.53086062  0.66970920  0.16312662    -0.07200
C2067       C  0.49360108  0.67125012  0.17262851     0.13700
C2068       C  0.48289424  0.69531195  0.19986749    -0.20700
C2069       C  0.50830940  0.71695935  0.21836300    -0.07200
C2070       C  0.54494476  0.71576652  0.20879555     0.13700
C2071       C  0.57385285  0.73526890  0.23009884    -0.24000
H2072       H  0.58397661  0.69298511  0.17450821     0.15000
H2073       H  0.45465236  0.69654719  0.20747652     0.15000
C2074       C  0.46491313  0.64769883  0.15563971    -0.24000
H2075       H  0.60143411  0.73070945  0.21935789     0.05200
H2076       H  0.57277047  0.72551851  0.25814053     0.08400
H2077       H  0.56970753  0.76429791  0.22960498     0.08400
H2078       H  0.47001870  0.61922640  0.16140735     0.08400
H2079       H  0.46433231  0.65282485  0.12634351     0.08400
H2080       H  0.43757331  0.65321375  0.16648145     0.05200
C2081       C  0.68099556  0.31205031  0.99236319    -0.20600
C2082       C  0.70949109  0.30151244  0.01410989    -0.07200
C2083       C  0.71445344  0.31826185  0.04760161     0.13700
C2084       C  0.69250228  0.34595552  0.05762346    -0.20700
C2085       C  0.66250547  0.35606870  0.03737316    -0.07200
C2086       C  0.65690548  0.33857566  0.00367130     0.13700
C2087       C  0.62559037  0.34594177  0.97972743    -0.24000
H2088       H  0.67658678  0.29813795  0.96712731     0.15000
H2089       H  0.69668112  0.35702804  0.08411645     0.15000
C2090       C  0.73942681  0.30421454  0.07544796    -0.24000
H2091       H  0.62764255  0.37406471  0.97034458     0.05200
H2092       H  0.59969246  0.34013432  0.99413869     0.08400
H2093       H  0.62553818  0.32878847  0.95531825     0.08400
H2094       H  0.76777008  0.30668435  0.06615322     0.08400
H2095       H  0.73140675  0.27597376  0.08106725     0.08400
H2096       H  0.73785617  0.31896287  0.10131799     0.05200
C2097       C  0.06630563  0.69001855  0.31394228    -0.20600
C2098       C  0.04193180  0.67080391  0.33700827    -0.07200
C2099       C  0.00434728  0.67469276  0.33081448     0.13700
C2100       C  0.99306063  0.69658514  0.30202080    -0.20700
C2101       C  0.01814041  0.71440222  0.27900232    -0.07200
C2102       C  0.05526977  0.71080353  0.28529355     0.13700
C2103       C  0.08458984  0.72714929  0.26147110    -0.24000
H2104       H  0.09519120  0.68718505  0.31707888     0.15000
H2105       H  0.96448776  0.69944841  0.29709926     0.15000
C2106       C  0.97588598  0.65572730  0.35327197    -0.24000
H2107       H  0.10307716  0.74449614  0.27772181     0.05200
H2108       H  0.07413707  0.74344530  0.23945145     0.08400
H2109       H  0.10056318  0.70552169  0.24926369     0.08400
H2110       H  0.97821944  0.66473957  0.38158136     0.08400
H2111       H  0.97880414  0.62635364  0.35103367     0.08400
H2112       H  0.94821039  0.66175026  0.34428060     0.05200
C2113       C  0.85002428  0.45413406  0.72263521    -0.20600
C2114       C  0.81499934  0.43878910  0.72219072    -0.07200
C2115       C  0.80606174  0.41368973  0.69483149     0.13700
C2116       C  0.83186868  0.40628025  0.66784733    -0.20700
C2117       C  0.86574877  0.42455522  0.66677324    -0.07200
C2118       C  0.87469796  0.44888381  0.69462505     0.13700
C2119       C  0.91036545  0.46973528  0.69538033    -0.24000
H2120       H  0.85751711  0.47222221  0.74397114     0.15000
H2121       H  0.82555240  0.38611687  0.64772049     0.15000
C2122       C  0.76921819  0.39557558  0.69270409    -0.24000
H2123       H  0.90541337  0.49873982  0.69391633     0.05200
H2124       H  0.92837760  0.46367371  0.67237382     0.08400
H2125       H  0.92483284  0.46393295  0.72056077     0.08400
H2126       H  0.75610960  0.40303920  0.66723561     0.08400
H2127       H  0.75132308  0.40310700  0.71535913     0.08400
H2128       H  0.77197638  0.36609621  0.69331062     0.05200
C2129       C  0.97640460  0.35921521  0.69994336    -0.20600
C2130       C  0.97051668  0.34658808  0.66475788    -0.07200
C2131       C  0.97950328  0.31058538  0.65824803     0.13700
C2132       C  0.98650766  0.28764037  0.68741201    -0.20700
C2133       C  0.98424248  0.29896575  0.72385590    -0.07200
C2134       C  0.97528142  0.33543032  0.72900885     0.13700
C2135       C  0.95474634  0.34850244  0.76140614    -0.24000
H2136       H  0.97336103  0.38739768  0.70574039     0.15000
H2137       H  0.99240039  0.26072201  0.68030436     0.15000
C2138       C  0.98434700  0.29613252  0.62078596    -0.24000
H2139       H  0.93065944  0.36315527  0.75282906     0.05200
H2140       H  0.97188797  0.36715604  0.77756398     0.08400
H2141       H  0.94360798  0.32605257  0.77766820     0.08400
H2142       H  0.98145116  0.31706766  0.60008210     0.08400
H2143       H  0.96440756  0.27385371  0.61586542     0.08400
H2144       H  0.01199872  0.28574049  0.61777775     0.05200
C2145       C  0.84305503  0.54769097  0.64210394    -0.20600
C2146       C  0.84964557  0.58397251  0.64772387    -0.07200
C2147       C  0.83071837  0.60104443  0.67607085     0.13700
C2148       C  0.80983349  0.58034658  0.70047152    -0.20700
C2149       C  0.80379944  0.54340941  0.69549303    -0.07200
C2150       C  0.81732994  0.52837397  0.66267863     0.13700
C2151       C  0.80242892  0.49496775  0.64508495    -0.24000
H2152       H  0.85464036  0.53558021  0.61828332     0.15000
H2153       H  0.79735957  0.59350616  0.72316103     0.15000
C2154       C  0.83058789  0.64092331  0.68104244    -0.24000
H2155       H  0.81482996  0.48984372  0.61835452     0.05200
H2156       H  0.77302672  0.49736991  0.64041664     0.08400
H2157       H  0.80833747  0.47188234  0.66122856     0.08400
H2158       H  0.80248703  0.65015734  0.67878440     0.08400
H2159       H  0.84742146  0.65533859  0.66090807     0.08400
H2160       H  0.84060704  0.64804105  0.70814692     0.05200
C2161       C  0.19791818  0.55105581  0.70975286    -0.20600
C2162       C  0.20916740  0.51644188  0.70483748    -0.07200
C2163       C  0.19367278  0.49578644  0.67636106     0.13700
C2164       C  0.16770387  0.51080730  0.65336972    -0.20700
C2165       C  0.15801757  0.54683811  0.65667254    -0.07200
C2166       C  0.17449248  0.56711053  0.68577110     0.13700
C2167       C  0.17096098  0.60667374  0.69265889    -0.24000
H2168       H  0.21043065  0.56709968  0.73089630     0.15000
H2169       H  0.15665610  0.49475532  0.63160434     0.15000
C2170       C  0.20432032  0.45787709  0.66936639    -0.24000
H2171       H  0.19830904  0.61981321  0.69388328     0.05200
H2172       H  0.15703056  0.61081395  0.71879782     0.08400
H2173       H  0.15649950  0.62087892  0.67210649     0.08400
H2174       H  0.22366462  0.44826709  0.68940613     0.08400
H2175       H  0.21691740  0.45595364  0.64229294     0.08400
H2176       H  0.17988449  0.43985928  0.67051870     0.05200
C2177       C  0.94910822  0.70349035  0.84693657    -0.20600
C2178       C  0.96681359  0.67094388  0.85294560    -0.07200
C2179       C  0.99653317  0.66324253  0.82978287     0.13700
C2180       C  0.00734382  0.68787590  0.80301280    -0.20700
C2181       C  0.98839752  0.71900262  0.79680753    -0.07200
C2182       C  0.95862511  0.72677423  0.81894229     0.13700
C2183       C  0.93398941  0.75743202  0.81223580    -0.24000
H2184       H  0.92443932  0.70932058  0.86122345     0.15000
H2185       H  0.02996533  0.68202875  0.78546070     0.15000
C2186       C  0.01633683  0.62871168  0.83106849    -0.24000
H2187       H  0.90568928  0.74696956  0.80966512     0.05200
H2188       H  0.94043744  0.77220986  0.78728400     0.08400
H2189       H  0.93545199  0.77645432  0.83517763     0.08400
H2190       H  0.99715657  0.60549870  0.82791517     0.08400
H2191       H  0.03154161  0.62724747  0.85645945     0.08400
H2192       H  0.03663756  0.62681733  0.80903838     0.05200
C2193       C  0.02638492  0.78556122  0.82801516    -0.20600
C2194       C  0.01026354  0.79957864  0.79728429    -0.07200
C2195       C  0.99721903  0.83489332  0.79937967     0.13700
C2196       C  0.00702989  0.85672692  0.82858486    -0.20700
C2197       C  0.02806344  0.84371775  0.85655839    -0.07200
C2198       C  0.03132576  0.80625382  0.85892409     0.13700
C2199       C  0.03673739  0.78707750  0.89386820    -0.24000
H2200       H  0.03504034  0.75824647  0.82852042     0.15000
H2201       H  0.00079090  0.88487389  0.82806629     0.15000
C2202       C  0.97289608  0.85063794  0.77197935    -0.24000
H2203       H  0.01379573  0.76765141  0.89838559     0.05200
H2204       H  0.03715663  0.80580495  0.91706167     0.08400
H2205       H  0.06210207  0.77200589  0.89287506     0.08400
H2206       H  0.96073032  0.82991059  0.75451349     0.08400
H2207       H  0.98817665  0.87095240  0.75569767     0.08400
H2208       H  0.94996722  0.86364512  0.78568019     0.05200
C2209       C  0.02651351  0.67586282  0.67015615    -0.20600
C2210       C  0.04982799  0.70216562  0.68598201    -0.07200
C2211       C  0.08749492  0.69891021  0.68037468     0.13700
C2212       C  0.09990796  0.67173251  0.65747622    -0.20700
C2213       C  0.07625088  0.64554650  0.64260556    -0.07200
C2214       C  0.03917337  0.64770487  0.64910637     0.13700
C2215       C  0.01309346  0.61964622  0.63439955    -0.24000
H2216       H  0.99792563  0.67630306  0.67458020     0.15000
H2217       H  0.12853081  0.66989465  0.65279467     0.15000
C2218       C  0.11553948  0.72124098  0.70015584    -0.24000
H2219       H  0.98495307  0.62409837  0.64323347     0.05200
H2220       H  0.02034747  0.59276082  0.64400821     0.08400
H2221       H  0.01418388  0.62002835  0.60461543     0.08400
H2222       H  0.13420870  0.70332475  0.71406716     0.08400
H2223       H  0.10378066  0.73852320  0.72110419     0.08400
H2224       H  0.13139892  0.73811918  0.68082055     0.05200
C2225       C  0.96019336  0.72790552  0.64381917    -0.20600
C2226       C  0.94815280  0.72486564  0.67953556    -0.07200
C2227       C  0.92709348  0.69441785  0.69014131     0.13700
C2228       C  0.92062043  0.66673201  0.66533951    -0.20700
C2229       C  0.93236314  0.66990522  0.62961679    -0.07200
C2230       C  0.95327986  0.70048131  0.61901037     0.13700
C2231       C  0.97034300  0.70394837  0.58223501    -0.24000
H2232       H  0.97824774  0.74999806  0.63605073     0.15000
H2233       H  0.90536928  0.64297358  0.67361165     0.15000
C2234       C  0.91123290  0.69123388  0.72756381    -0.24000
H2235       H  0.00010180  0.70775781  0.58493559     0.05200
H2236       H  0.95959508  0.72750934  0.56833033     0.08400
H2237       H  0.96537972  0.67981786  0.56535411     0.08400
H2238       H  0.89269136  0.71350087  0.73249484     0.08400
H2239       H  0.89579051  0.66558785  0.73130879     0.08400
H2240       H  0.93237205  0.69216574  0.74830616     0.05200
C2241       C  0.64221426  0.17536896  0.49930337    -0.20600
C2242       C  0.65638537  0.14559762  0.51651293    -0.07200
C2243       C  0.69427753  0.14294325  0.51589660     0.13700
C2244       C  0.71559876  0.17432567  0.51365220    -0.20700
C2245       C  0.70153683  0.20627312  0.50053363    -0.07200
C2246       C  0.66460008  0.20503649  0.48972095     0.13700
C2247       C  0.64758784  0.23357761  0.46790326    -0.24000
H2248       H  0.61319734  0.17672796  0.49603456     0.15000
H2249       H  0.74348952  0.17287305  0.52142709     0.15000
C2250       C  0.71273533  0.10769271  0.51348850    -0.24000
H2251       H  0.63265323  0.22105551  0.44513223     0.05200
H2252       H  0.66795771  0.25191930  0.45576533     0.08400
H2253       H  0.62835605  0.24863400  0.48477209     0.08400
H2254       H  0.69287390  0.08478095  0.51270869     0.08400
H2255       H  0.72883676  0.10689087  0.48819290     0.08400
H2256       H  0.73146083  0.10469114  0.53630364     0.05200
C2257       C  0.67234170  0.34211048  0.47770385    -0.20600
C2258       C  0.69308795  0.32099891  0.45456935    -0.07200
C2259       C  0.68139357  0.31596841  0.41886067     0.13700
C2260       C  0.64873976  0.33097311  0.40800396    -0.20700
C2261       C  0.62805214  0.35163026  0.43174308    -0.07200
C2262       C  0.64040833  0.35774383  0.46676515     0.13700
C2263       C  0.61899166  0.37929223  0.49322718    -0.24000
H2264       H  0.68036386  0.34539512  0.50507422     0.15000
H2265       H  0.63932008  0.32672484  0.38081733     0.15000
C2266       C  0.70218341  0.29350438  0.39275471    -0.24000
H2267       H  0.63205818  0.38044408  0.51978540     0.05200
H2268       H  0.59144111  0.36702530  0.49665961     0.08400
H2269       H  0.61690598  0.40720143  0.48374985     0.08400
H2270       H  0.70415869  0.26592720  0.40316100     0.08400
H2271       H  0.72976905  0.30537119  0.38867205     0.08400
H2272       H  0.68883980  0.29185231  0.36620474     0.05200
C2273       C  0.82974351  0.33200900  0.52604691    -0.20600
C2274       C  0.80451489  0.31057882  0.54564915    -0.07200
C2275       C  0.80967486  0.30646439  0.58296379     0.13700
C2276       C  0.83874725  0.32500590  0.59954179    -0.20700
C2277       C  0.86302073  0.34723569  0.57982903    -0.07200
C2278       C  0.85844483  0.35073997  0.54264005     0.13700
C2279       C  0.88416742  0.37357035  0.52018655    -0.24000
H2280       H  0.82631761  0.33533706  0.49760642     0.15000
H2281       H  0.84274404  0.32180770  0.62812891     0.15000
C2282       C  0.78617941  0.28190122  0.60589738    -0.24000
H2283       H  0.87745530  0.37178239  0.49131247     0.05200
H2284       H  0.91223113  0.36455304  0.52345894     0.08400
H2285       H  0.88271132  0.40204090  0.52833997     0.08400
H2286       H  0.76608361  0.26593907  0.59027763     0.08400
H2287       H  0.77167374  0.29789376  0.62629447     0.08400
H2288       H  0.80338652  0.26263586  0.61984453     0.05200
C2289       C  0.68947488  0.30854697  0.57907589    -0.20600
C2290       C  0.71971192  0.32159118  0.55949725    -0.07200
C2291       C  0.72459013  0.35946794  0.55686390     0.13700
C2292       C  0.69630963  0.38176531  0.56712108    -0.20700
C2293       C  0.66481954  0.36835133  0.58419284    -0.07200
C2294       C  0.66373167  0.33163732  0.59365926     0.13700
C2295       C  0.63787239  0.31619447  0.62094050    -0.24000
H2296       H  0.68594358  0.27991531  0.58311519     0.15000
H2297       H  0.69936361  0.41042348  0.56303863     0.15000
C2298       C  0.75907363  0.37747916  0.54418977    -0.24000
H2299       H  0.61927187  0.29680877  0.60747663     0.05200
H2300       H  0.62289850  0.33715920  0.63503915     0.08400
H2301       H  0.65300596  0.30194413  0.64182423     0.08400
H2302       H  0.76711441  0.36678789  0.51798019     0.08400
H2303       H  0.78038113  0.37351159  0.56430800     0.08400
H2304       H  0.75654030  0.40684014  0.54155293     0.05200
C2305       C  0.76998569  0.36469768  0.44926282    -0.20600
C2306       C  0.77870197  0.32901491  0.44225343    -0.07200
C2307       C  0.81250922  0.32252827  0.42567727     0.13700
C2308       C  0.83832126  0.35070729  0.42169103    -0.20700
C2309       C  0.83058106  0.38596172  0.43142124    -0.07200
C2310       C  0.79563607  0.39294882  0.44519742     0.13700
C2311       C  0.78492234  0.42964348  0.45765934    -0.24000
H2312       H  0.74424768  0.37060095  0.46148634     0.15000
H2313       H  0.86444368  0.34502569  0.41022245     0.15000
C2314       C  0.82199647  0.28611257  0.41162552    -0.24000
H2315       H  0.77482546  0.42824248  0.48568369     0.05200
H2316       H  0.76302741  0.43935118  0.44039534     0.08400
H2317       H  0.80770565  0.44961343  0.45753265     0.08400
H2318       H  0.79924179  0.26621896  0.41457872     0.08400
H2319       H  0.84585246  0.27629314  0.42602017     0.08400
H2320       H  0.82877204  0.28807817  0.38258471     0.05200
C2321       C  0.16405881  0.91265961  0.66736789    -0.20600
C2322       C  0.14138485  0.93415100  0.64707008    -0.07200
C2323       C  0.13351777  0.96851859  0.65951686     0.13700
C2324       C  0.15214387  0.98226056  0.68942599    -0.20700
C2325       C  0.17724822  0.96187824  0.70800980    -0.07200
C2326       C  0.18132161  0.92577393  0.69826825     0.13700
C2327       C  0.20445150  0.90080088  0.71894657    -0.24000
H2328       H  0.16894051  0.88558791  0.65858547     0.15000
H2329       H  0.14791602  0.00948761  0.69762347     0.15000
C2330       C  0.10679590  0.99107773  0.64041210    -0.24000
H2331       H  0.22663759  0.89123360  0.70148105     0.05200
H2332       H  0.18760206  0.87733601  0.72794388     0.08400
H2333       H  0.21641638  0.91346351  0.74313924     0.08400
H2334       H  0.11595777  0.99601125  0.61235341     0.08400
H2335       H  0.10349620  0.01726928  0.65395821     0.08400
H2336       H  0.07990327  0.97704841  0.64020668     0.05200
C2337       C  0.09063292  0.84535201  0.66421648    -0.20600
C2338       C  0.08345831  0.83843855  0.62798331    -0.07200
C2339       C  0.06993873  0.80385793  0.61786994     0.13700
C2340       C  0.06215798  0.77812391  0.64443964    -0.20700
C2341       C  0.06605559  0.78648759  0.68100101    -0.07200
C2342       C  0.08322862  0.81947846  0.69061048     0.13700
C2343       C  0.09332224  0.82833096  0.72881088    -0.24000
H2344       H  0.10244227  0.87096624  0.67211302     0.15000
H2345       H  0.04838581  0.75337741  0.63655754     0.15000
C2346       C  0.05987115  0.79420330  0.57981579    -0.24000
H2347       H  0.07843824  0.85197146  0.73823675     0.05200
H2348       H  0.08727895  0.80568606  0.74732935     0.08400
H2349       H  0.12280868  0.83470106  0.73013130     0.08400
H2350       H  0.07688343  0.77216472  0.57011282     0.08400
H2351       H  0.06292585  0.81701894  0.56102878     0.08400
H2352       H  0.03101779  0.78503226  0.57906765     0.05200
C2353       C  0.15992092  0.07018369  0.65218440    -0.20600
C2354       C  0.13594887  0.09425628  0.66742624    -0.07200
C2355       C  0.14900835  0.11406161  0.69805006     0.13700
C2356       C  0.17724085  0.10039177  0.71873534    -0.20700
C2357       C  0.19645214  0.07106768  0.70650911    -0.07200
C2358       C  0.19262650  0.06313439  0.66919446     0.13700
C2359       C  0.22423081  0.05509673  0.64495350    -0.24000
H2360       H  0.15514778  0.05969824  0.62548284     0.15000
H2361       H  0.18398770  0.11265335  0.74423454     0.15000
C2362       C  0.13794275  0.15172370  0.70606325    -0.24000
H2363       H  0.25018631  0.05602117  0.65970581     0.05200
H2364       H  0.22677953  0.07578622  0.62367596     0.08400
H2365       H  0.21979018  0.02870142  0.63166733     0.08400
H2366       H  0.11064678  0.15234819  0.71776813     0.08400
H2367       H  0.13930900  0.16782538  0.68108974     0.08400
H2368       H  0.15640133  0.16508651  0.72566220     0.05200
C2369       C  0.05185557  0.19478909  0.68426058    -0.20600
C2370       C  0.02962226  0.16682193  0.66973676    -0.07200
C2371       C  0.99409128  0.16267374  0.68433684     0.13700
C2372       C  0.98267581  0.18631375  0.71196560    -0.20700
C2373       C  0.00487526  0.21527505  0.72399013    -0.07200
C2374       C  0.03966252  0.22011546  0.70845879     0.13700
C2375       C  0.06522227  0.25186333  0.71533645    -0.24000
H2376       H  0.08010044  0.19744368  0.67662176     0.15000
H2377       H  0.95619930  0.18225413  0.72425613     0.15000
C2378       C  0.96846874  0.13312161  0.67241183    -0.24000
H2379       H  0.09210513  0.24283412  0.72374545     0.05200
H2380       H  0.05589497  0.27077363  0.73572758     0.08400
H2381       H  0.06917798  0.26704962  0.68996481     0.08400
H2382       H  0.96075128  0.13760539  0.64415124     0.08400
H2383       H  0.98119761  0.10683095  0.67539182     0.08400
H2384       H  0.94311782  0.13243762  0.68864118     0.05200
C2385       C  0.14451593  0.00177254  0.32519841    -0.20600
C2386       C  0.13541181  0.03805531  0.32172885    -0.07200
C2387       C  0.15904530  0.05986936  0.29948148     0.13700
C2388       C  0.19372844  0.04874414  0.29165659    -0.20700
C2389       C  0.20228801  0.01306885  0.29298754    -0.07200
C2390       C  0.17628027  0.98851637  0.30829227     0.13700
C2391       C  0.18128067  0.94886751  0.30747261    -0.24000
H2392       H  0.12727117  0.98389150  0.34108815     0.15000
H2393       H  0.21368716  0.06789834  0.28109187     0.15000
C2394       C  0.14975734  0.09603988  0.28510414    -0.24000
H2395       H  0.18429920  0.93875066  0.33522741     0.05200
H2396       H  0.20511264  0.94176318  0.29104267     0.08400
H2397       H  0.15723716  0.93538482  0.29517463     0.08400
H2398       H  0.17220421  0.10879762  0.26921727     0.08400
H2399       H  0.14408964  0.11430070  0.30720045     0.08400
H2400       H  0.12633319  0.09339814  0.26687266     0.05200
C2401       C  0.91418503  0.85140326  0.67250005    -0.20600
C2402       C  0.93589102  0.86908416  0.64621739    -0.07200
C2403       C  0.96955459  0.85533288  0.63717765     0.13700
C2404       C  0.98147548  0.82547488  0.65587242    -0.20700
C2405       C  0.96032313  0.80793392  0.68242854    -0.07200
C2406       C  0.92545939  0.82047147  0.68987757     0.13700
C2407       C  0.90000550  0.80300129  0.71684846    -0.24000
H2408       H  0.88783137  0.86161338  0.67913990     0.15000
H2409       H  0.00792409  0.81638981  0.65028065     0.15000
C2410       C  0.99369248  0.87323902  0.60936498    -0.24000
H2411       H  0.89352815  0.82247127  0.73835784     0.05200
H2412       H  0.91126504  0.77921193  0.72960188     0.08400
H2413       H  0.87457707  0.79436657  0.70329151     0.08400
H2414       H  0.99941895  0.90160694  0.61691916     0.08400
H2415       H  0.98078533  0.87196667  0.58271474     0.08400
H2416       H  0.01965186  0.85978788  0.60653171     0.05200
C2417       C  0.85216749  0.95800339  0.69558960    -0.20600
C2418       C  0.86139264  0.97574458  0.66285934    -0.07200
C2419       C  0.83836074  0.00377628  0.65264517     0.13700
C2420       C  0.80812356  0.01240682  0.67444558    -0.20700
C2421       C  0.79924173  0.99349986  0.70609429    -0.07200
C2422       C  0.82152476  0.96554032  0.71626480     0.13700
C2423       C  0.81215044  0.94018189  0.74673168    -0.24000
H2424       H  0.86590851  0.93451923  0.70384859     0.15000
H2425       H  0.79062724  0.03352008  0.66622120     0.15000
C2426       C  0.84422333  0.02374570  0.61797011    -0.24000
H2427       H  0.81115670  0.91223302  0.73646818     0.05200
H2428       H  0.78548926  0.94459865  0.75924557     0.08400
H2429       H  0.83321513  0.94265291  0.76769015     0.08400
H2430       H  0.84330328  0.00489037  0.59490674     0.08400
H2431       H  0.87066292  0.03855874  0.61852676     0.08400
H2432       H  0.82308683  0.04368146  0.61368696     0.05200
C2433       C  0.81359905  0.19833286  0.49919489    -0.20600
C2434       C  0.78319493  0.20660220  0.47889825    -0.07200
C2435       C  0.77251996  0.18274370  0.45121590     0.13700
C2436       C  0.79205792  0.15172261  0.44490306    -0.20700
C2437       C  0.82554851  0.14543204  0.46158838    -0.07200
C2438       C  0.83495123  0.16857599  0.49090854     0.13700
C2439       C  0.86866024  0.16360177  0.51242429    -0.24000
H2440       H  0.82128084  0.21597130  0.52118302     0.15000
H2441       H  0.78229565  0.13489856  0.42346708     0.15000
C2442       C  0.74190337  0.18994109  0.42606375    -0.24000
H2443       H  0.86724082  0.13699909  0.52554274     0.05200
H2444       H  0.89306637  0.16609819  0.49498765     0.08400
H2445       H  0.87171830  0.18404835  0.53397916     0.08400
H2446       H  0.75214043  0.18988937  0.39795165     0.08400
H2447       H  0.72043397  0.16866179  0.42899890     0.08400
H2448       H  0.72984076  0.21621278  0.43068648     0.05200
C2449       C  0.00696139  0.84471384  0.32152060    -0.20600
C2450       C  0.96958509  0.84527010  0.32911661    -0.07200
C2451       C  0.94646130  0.81856708  0.31230529     0.13700
C2452       C  0.96147554  0.79177257  0.29160917    -0.20700
C2453       C  0.99773610  0.79318512  0.28176377    -0.07200
C2454       C  0.02098156  0.81985333  0.29673022     0.13700
C2455       C  0.06020623  0.82247224  0.28593010    -0.24000
H2456       H  0.02491771  0.86503245  0.33293013     0.15000
H2457       H  0.94361594  0.77176585  0.27922435     0.15000
C2458       C  0.90542685  0.81736236  0.31269030    -0.24000
H2459       H  0.07458885  0.84522899  0.29946049     0.05200
H2460       H  0.06276696  0.82637908  0.25648400     0.08400
H2461       H  0.07347392  0.79751663  0.29354827     0.08400
H2462       H  0.89253515  0.83991662  0.32598801     0.08400
H2463       H  0.89534079  0.79236453  0.32595446     0.08400
H2464       H  0.89552121  0.81730099  0.28461861     0.05200
C2465       C  0.70481451  0.69507749  0.50582549    -0.20600
C2466       C  0.72537173  0.71031879  0.47757833    -0.07200
C2467       C  0.72126782  0.69721118  0.44262310     0.13700
C2468       C  0.69770384  0.66866649  0.43679859    -0.20700
C2469       C  0.67380938  0.65486337  0.46371954    -0.07200
C2470       C  0.67800121  0.66822871  0.49917021     0.13700
C2471       C  0.65360260  0.65622537  0.52956910    -0.24000
H2472       H  0.70761690  0.70641907  0.53251438     0.15000
H2473       H  0.69427646  0.66146224  0.40885749     0.15000
C2474       C  0.73761570  0.71482876  0.40957294    -0.24000
H2475       H  0.66071057  0.67017148  0.55503874     0.05200
H2476       H  0.65639325  0.62713693  0.53409172     0.08400
H2477       H  0.62516046  0.66230035  0.52348539     0.08400
H2478       H  0.75488086  0.73872404  0.41552079     0.08400
H2479       H  0.71558186  0.72304427  0.39172749     0.08400
H2480       H  0.75405151  0.69534248  0.39455090     0.05200
C2481       C  0.80038243  0.71754866  0.54482241    -0.20600
C2482       C  0.79980240  0.71805517  0.50763237    -0.07200
C2483       C  0.81538419  0.68955485  0.48818612     0.13700
C2484       C  0.83358886  0.66308639  0.50667242    -0.20700
C2485       C  0.83662542  0.66399174  0.54407170    -0.07200
C2486       C  0.81820412  0.69135640  0.56354518     0.13700
C2487       C  0.81689507  0.69456839  0.60408925    -0.24000
H2488       H  0.78621919  0.73800714  0.55950402     0.15000
H2489       H  0.84632327  0.64241280  0.49123301     0.15000
C2490       C  0.81430141  0.68574375  0.44820694    -0.24000
H2491       H  0.80132295  0.67169314  0.61584244     0.05200
H2492       H  0.80277548  0.71880998  0.61319157     0.08400
H2493       H  0.84426322  0.69702892  0.61559126     0.08400
H2494       H  0.80011749  0.70746102  0.43576070     0.08400
H2495       H  0.80017731  0.66010968  0.44090256     0.08400
H2496       H  0.84227197  0.68594710  0.43710369     0.05200
C2497       C  0.70169429  0.81873186  0.57186551    -0.20600
C2498       C  0.69797761  0.81314896  0.53488294    -0.07200
C2499       C  0.66439987  0.82306024  0.51914956     0.13700
C2500       C  0.64251610  0.84694717  0.53741184    -0.20700
C2501       C  0.64709127  0.85363140  0.57366310    -0.07200
C2502       C  0.67555027  0.83677417  0.59174049     0.13700
C2503       C  0.67857434  0.83546756  0.63178820    -0.24000
H2504       H  0.72482362  0.80835116  0.58555658     0.15000
H2505       H  0.61831689  0.85639319  0.52472247     0.15000
C2506       C  0.64644408  0.80489564  0.48749330    -0.24000
H2507       H  0.70560604  0.84587831  0.63975166     0.05200
H2508       H  0.67566286  0.80726727  0.64087835     0.08400
H2509       H  0.65785859  0.85111947  0.64548324     0.08400
H2510       H  0.64442509  0.77555574  0.49202739     0.08400
H2511       H  0.66038582  0.81155912  0.46237237     0.08400
H2512       H  0.61825035  0.81338149  0.48353959     0.05200
C2513       C  0.80967618  0.86231674  0.43305241    -0.20600
C2514       C  0.81314374  0.82600269  0.44108896    -0.07200
C2515       C  0.84793650  0.81164047  0.43923983     0.13700
C2516       C  0.87782214  0.83407189  0.43366202    -0.20700
C2517       C  0.87411578  0.86843098  0.41966563    -0.07200
C2518       C  0.83940557  0.88371171  0.42152087     0.13700
C2519       C  0.83254546  0.92223763  0.41314396    -0.24000
H2520       H  0.78408949  0.87461490  0.43572951     0.15000
H2521       H  0.90427716  0.82272979  0.43595952     0.15000
C2522       C  0.85460853  0.77227645  0.44037698    -0.24000
H2523       H  0.80364889  0.92870653  0.41681317     0.05200
H2524       H  0.83935157  0.92809143  0.38487782     0.08400
H2525       H  0.84803693  0.93997445  0.43179189     0.08400
H2526       H  0.82900545  0.75699172  0.43853566     0.08400
H2527       H  0.86904659  0.76532318  0.46525111     0.08400
H2528       H  0.87110697  0.76447809  0.41671065     0.05200
C2529       C  0.81205757  0.89229001  0.56158510    -0.20600
C2530       C  0.84497764  0.87938282  0.57361070    -0.07200
C2531       C  0.84833252  0.84165517  0.57393377     0.13700
C2532       C  0.81897953  0.81903729  0.56321813    -0.20700
C2533       C  0.78675812  0.83189147  0.54869580    -0.07200
C2534       C  0.78304439  0.86983396  0.55032638     0.13700
C2535       C  0.74941636  0.88941472  0.54282866    -0.24000
H2536       H  0.80848484  0.92099709  0.56153166     0.15000
H2537       H  0.82251703  0.79042895  0.56355903     0.15000
C2538       C  0.88232040  0.82410891  0.58505557    -0.24000
H2539       H  0.74064360  0.90370968  0.56745113     0.05200
H2540       H  0.72704409  0.87195573  0.53487245     0.08400
H2541       H  0.75498309  0.90950151  0.52144716     0.08400
H2542       H  0.88736713  0.83034994  0.61331785     0.08400
H2543       H  0.90534136  0.83286557  0.56768271     0.08400
H2544       H  0.88004612  0.79447119  0.58288352     0.05200
C2545       C  0.72139501  0.86098010  0.45830850    -0.20600
C2546       C  0.72664912  0.83179077  0.43535336    -0.07200
C2547       C  0.70245862  0.82612717  0.40668112     0.13700
C2548       C  0.67243468  0.84799827  0.40367934    -0.20700
C2549       C  0.66660839  0.87594710  0.42832604    -0.07200
C2550       C  0.69161957  0.88271880  0.45570937     0.13700
C2551       C  0.68769152  0.91359597  0.48163605    -0.24000
H2552       H  0.74075397  0.86591676  0.47899733     0.15000
H2553       H  0.65457404  0.84445102  0.38095282     0.15000
C2554       C  0.70826242  0.79818856  0.37843494    -0.24000
H2555       H  0.68471284  0.90353543  0.50937087     0.05200
H2556       H  0.66336044  0.92935265  0.47678032     0.08400
H2557       H  0.71174030  0.93200727  0.47955528     0.08400
H2558       H  0.68583329  0.77774743  0.37950847     0.08400
H2559       H  0.73454795  0.78534515  0.38168154     0.08400
H2560       H  0.70870270  0.81093471  0.35154611     0.05200
C2561       C  0.70807518  0.96459348  0.29351905    -0.20600
C2562       C  0.71074614  0.00166946  0.29305729    -0.07200
C2563       C  0.69093906  0.02234581  0.31707697     0.13700
C2564       C  0.66715315  0.00473738  0.34090254    -0.20700
C2565       C  0.66444911  0.96701549  0.34172974    -0.07200
C2566       C  0.68673141  0.94668798  0.31828822     0.13700
C2567       C  0.69061430  0.90632931  0.31813288    -0.24000
H2568       H  0.72406881  0.94927143  0.27487406     0.15000
H2569       H  0.65213076  0.02078485  0.35951083     0.15000
C2570       C  0.69523821  0.06251193  0.31780224    -0.24000
H2571       H  0.71948136  0.90015421  0.32207122     0.05200
H2572       H  0.68200335  0.89530771  0.29172913     0.08400
H2573       H  0.67542726  0.89138154  0.33899793     0.08400
H2574       H  0.68753620  0.07363120  0.29154250     0.08400
H2575       H  0.72377922  0.07038033  0.32354098     0.08400
H2576       H  0.67788291  0.07451441  0.33881447     0.05200
C2577       C  0.64729803  0.00816505  0.17251572    -0.20600
C2578       C  0.64045433  0.04492576  0.17188548    -0.07200
C2579       C  0.66263366  0.06829198  0.19441959     0.13700
C2580       C  0.68982558  0.05438682  0.21516012    -0.20700
C2581       C  0.69788323  0.01855500  0.21415464    -0.07200
C2582       C  0.67621612  0.99488665  0.19289234     0.13700
C2583       C  0.68416808  0.95595295  0.19081406    -0.24000
H2584       H  0.63136948  0.99010661  0.15574271     0.15000
H2585       H  0.70697561  0.07258609  0.23077598     0.15000
C2586       C  0.66096438  0.10876816  0.19765117    -0.24000
H2587       H  0.66382978  0.94073528  0.17459820     0.05200
H2588       H  0.68427290  0.94429392  0.21816000     0.08400
H2589       H  0.71083502  0.95328897  0.17769361     0.08400
H2590       H  0.64286096  0.12216234  0.17926322     0.08400
H2591       H  0.68829800  0.12103577  0.19258140     0.08400
H2592       H  0.65265511  0.11588296  0.22542897     0.05200
C2593       C  0.80207188  0.09734871  0.29818025    -0.20600
C2594       C  0.81956832  0.07468741  0.27418384    -0.07200
C2595       C  0.85736205  0.07084568  0.27930858     0.13700
C2596       C  0.87346754  0.08122785  0.31253815    -0.20700
C2597       C  0.85327883  0.09759038  0.33988596    -0.07200
C2598       C  0.81929307  0.11106521  0.32910714     0.13700
C2599       C  0.80138334  0.14182896  0.34754957    -0.24000
H2600       H  0.77417795  0.10367888  0.29325075     0.15000
H2601       H  0.90158738  0.07602330  0.31717863     0.15000
C2602       C  0.88083470  0.05453786  0.25108333    -0.24000
H2603       H  0.79547109  0.16257643  0.32735569     0.05200
H2604       H  0.81892920  0.15544391  0.36760210     0.08400
H2605       H  0.77548776  0.13240084  0.36007889     0.08400
H2606       H  0.86640336  0.05163631  0.22536856     0.08400
H2607       H  0.90480171  0.07250625  0.24594086     0.08400
H2608       H  0.89012903  0.02816848  0.26017888     0.05200
C2609       C  0.81879399  0.91461056  0.15879389    -0.20600
C2610       C  0.84926239  0.93392257  0.14540983    -0.07200
C2611       C  0.86325578  0.96309095  0.16599180     0.13700
C2612       C  0.84574372  0.97190535  0.19839050    -0.20700
C2613       C  0.81277205  0.95519670  0.20880772    -0.07200
C2614       C  0.79939367  0.92580801  0.18874057     0.13700
C2615       C  0.76372574  0.90664842  0.19641668    -0.24000
H2616       H  0.80786240  0.89195338  0.14443246     0.15000
H2617       H  0.85550100  0.99470432  0.21352261     0.15000
C2618       C  0.89290448  0.98827229  0.15219396    -0.24000
H2619       H  0.76848213  0.87865831  0.20449943     0.05200
H2620       H  0.74723929  0.90571631  0.17168907     0.08400
H2621       H  0.74781302  0.91976841  0.21766104     0.08400
H2622       H  0.88910651  0.99384487  0.12324770     0.08400
H2623       H  0.91983337  0.97720533  0.15671659     0.08400
H2624       H  0.89274042  0.01437599  0.16652671     0.05200
C2625       C  0.85573488  0.91540746  0.30928493    -0.20600
C2626       C  0.88017991  0.93821163  0.32758222    -0.07200
C2627       C  0.87390951  0.97490228  0.32965977     0.13700
C2628       C  0.84415144  0.98804223  0.31175410    -0.20700
C2629       C  0.82118957  0.96591084  0.29067989    -0.07200
C2630       C  0.82570984  0.92857617  0.29195347     0.13700
C2631       C  0.79816293  0.90156725  0.27856263    -0.24000
H2632       H  0.85921545  0.88680700  0.30970324     0.15000
H2633       H  0.83924570  0.01595802  0.31444078     0.15000
C2634       C  0.89888735  0.00104632  0.34893484    -0.24000
H2635       H  0.79041860  0.88273346  0.30052589     0.05200
H2636       H  0.80977631  0.88611607  0.25599776     0.08400
H2637       H  0.77315836  0.91420931  0.27038771     0.08400
H2638       H  0.92127926  0.98833398  0.36294187     0.08400
H2639       H  0.88339130  0.01660384  0.36895134     0.08400
H2640       H  0.91173863  0.01930397  0.32897560     0.05200
C2641       C  0.84180498  0.06568778  0.13676371    -0.20600
C2642       C  0.85322359  0.09991415  0.14699021    -0.07200
C2643       C  0.83299069  0.11845092  0.17328379     0.13700
C2644       C  0.80918054  0.09865500  0.19514501    -0.20700
C2645       C  0.80284418  0.06216620  0.18876292    -0.07200
C2646       C  0.81381656  0.04801002  0.15486953     0.13700
C2647       C  0.79507425  0.01795746  0.13433697    -0.24000
H2648       H  0.85470931  0.05216308  0.11465061     0.15000
H2649       H  0.79617377  0.11154773  0.21768255     0.15000
C2650       C  0.83416668  0.15862233  0.17728396    -0.24000
H2651       H  0.80491197  0.01644405  0.10610450     0.05200
H2652       H  0.76570899  0.02292282  0.13263636     0.08400
H2653       H  0.80021894  0.99159740  0.14584087     0.08400
H2654       H  0.83462478  0.17118508  0.15039023     0.08400
H2655       H  0.85746943  0.16817715  0.19350039     0.08400
H2656       H  0.80948982  0.16787382  0.19125836     0.05200
C2657       C  0.98520090  0.34953865  0.16486576    -0.20600
C2658       C  0.00778591  0.33472455  0.13833917    -0.07200
C2659       C  0.01616207  0.29857854  0.14273441     0.13700
C2660       C  0.01753442  0.28479753  0.17724292    -0.20700
C2661       C  0.99941070  0.30134367  0.20577369    -0.07200
C2662       C  0.98046862  0.33295353  0.19858434     0.13700
C2663       C  0.95559217  0.34958106  0.22572075    -0.24000
H2664       H  0.97574692  0.37641426  0.16133178     0.15000
H2665       H  0.03014000  0.25940411  0.18100024     0.15000
C2666       C  0.01907068  0.27310251  0.11162720    -0.24000
H2667       H  0.94051758  0.37175553  0.21377986     0.05200
H2668       H  0.97108034  0.36113453  0.24845910     0.08400
H2669       H  0.93541499  0.32920778  0.23554815     0.08400
H2670       H  0.04641632  0.26174539  0.11059211     0.08400
H2671       H  0.01301284  0.28633684  0.08583624     0.08400
H2672       H  0.99880348  0.25076387  0.11505913     0.05200
C2673       C  0.94882118  0.23314289  0.19081540    -0.20600
C2674       C  0.97797570  0.22286584  0.21089546    -0.07200
C2675       C  0.99768609  0.19305910  0.19955172     0.13700
C2676       C  0.98704667  0.17391796  0.16843075    -0.20700
C2677       C  0.95706033  0.18374061  0.14788537    -0.07200
C2678       C  0.93818605  0.21471372  0.15985732     0.13700
C2679       C  0.90563537  0.22888959  0.14181772    -0.24000
H2680       H  0.93403128  0.25616973  0.19982900     0.15000
H2681       H  0.00126211  0.15003074  0.16156865     0.15000
C2682       C  0.03031484  0.18174121  0.21976175    -0.24000
H2683       H  0.89303070  0.25089493  0.15709574     0.05200
H2684       H  0.88463317  0.20744135  0.13973857     0.08400
H2685       H  0.91397638  0.24061653  0.11568110     0.08400
H2686       H  0.02274416  0.17472658  0.24777986     0.08400
H2687       H  0.05082136  0.20396487  0.21955700     0.08400
H2688       H  0.04274838  0.15802407  0.20729554     0.05200
C2689       C  0.08209661  0.16657744  0.32037983    -0.20600
C2690       C  0.05983987  0.14464585  0.34257888    -0.07200
C2691       C  0.02650979  0.15741085  0.35441856     0.13700
C2692       C  0.01536177  0.19055568  0.34193627    -0.20700
C2693       C  0.03708949  0.21213617  0.31900791    -0.07200
C2694       C  0.07165231  0.20057783  0.30936923     0.13700
C2695       C  0.09741828  0.22369875  0.28730499    -0.24000
H2696       H  0.10793284  0.15746628  0.31172596     0.15000
H2697       H  0.98879728  0.19893302  0.34892876     0.15000
C2698       C  0.00181522  0.13539253  0.37862416    -0.24000
H2699       H  0.10505883  0.24806172  0.30287991     0.05200
H2700       H  0.12260445  0.20965680  0.28055880     0.08400
H2701       H  0.08475617  0.23179740  0.26193255     0.08400
H2702       H  0.01451531  0.13125301  0.40496404     0.08400
H2703       H  0.99535792  0.10904953  0.36597035     0.08400
H2704       H  0.97631282  0.14904778  0.38401646     0.05200
C2705       C  0.97341655  0.34589695  0.33925942    -0.20600
C2706       C  0.94984600  0.32175161  0.32100992    -0.07200
C2707       C  0.91219536  0.32704682  0.32396879     0.13700
C2708       C  0.89959376  0.35428851  0.34657851    -0.20700
C2709       C  0.92345737  0.37728824  0.36562483    -0.07200
C2710       C  0.96080648  0.37329461  0.36144473     0.13700
C2711       C  0.98734742  0.39909408  0.37905843    -0.24000
H2712       H  0.00209873  0.34431885  0.33559022     0.15000
H2713       H  0.87086624  0.35915872  0.34753627     0.15000
C2714       C  0.88470892  0.30709725  0.30131215    -0.24000
H2715       H  0.01569178  0.39311726  0.37202172     0.05200
H2716       H  0.98412511  0.39749637  0.40864718     0.08400
H2717       H  0.98246748  0.42683052  0.37017219     0.08400
H2718       H  0.86655042  0.29034715  0.31874884     0.08400
H2719       H  0.89722831  0.29002447  0.28068602     0.08400
H2720       H  0.86825449  0.32654527  0.28670432     0.05200
C2721       C  0.90189538  0.18130838  0.33713610    -0.20600
C2722       C  0.91327719  0.18311395  0.37277276    -0.07200
C2723       C  0.92972117  0.21535317  0.38580892     0.13700
C2724       C  0.93787249  0.24326085  0.36165539    -0.20700
C2725       C  0.93064598  0.23914018  0.32496721    -0.07200
C2726       C  0.90950616  0.20929138  0.31327578     0.13700
C2727       C  0.89551193  0.20646728  0.27542238    -0.24000
H2728       H  0.88684133  0.15804736  0.32776302     0.15000
H2729       H  0.95377890  0.26631665  0.37072536     0.15000
C2730       C  0.94173439  0.21926887  0.42425082    -0.24000
H2731       H  0.87862203  0.18167713  0.27137916     0.05200
H2732       H  0.91796261  0.20593645  0.25572005     0.08400
H2733       H  0.87846391  0.22955899  0.26964836     0.08400
H2734       H  0.96010534  0.19744007  0.43099139     0.08400
H2735       H  0.91816970  0.21830931  0.44282503     0.08400
H2736       H  0.95652398  0.24519293  0.42889045     0.05200
C2737       C  0.03803955  0.28998608  0.36260630    -0.20600
C2738       C  0.05022360  0.29532101  0.32710943    -0.07200
C2739       C  0.07373494  0.32498299  0.31946153     0.13700
C2740       C  0.08301762  0.34924907  0.34707180    -0.20700
C2741       C  0.06978343  0.34462476  0.38229427    -0.07200
C2742       C  0.04657079  0.31468995  0.38989986     0.13700
C2743       C  0.02856701  0.30911880  0.42600317    -0.24000
H2744       H  0.01894245  0.26818545  0.36852020     0.15000
H2745       H  0.10126066  0.37157738  0.34110721     0.15000
C2746       C  0.08980608  0.33075759  0.28242346    -0.24000
H2747       H  0.99875331  0.30781440  0.42261480     0.05200
H2748       H  0.03484206  0.33112493  0.44519871     0.08400
H2749       H  0.03718380  0.28354417  0.43773944     0.08400
H2750       H  0.06860138  0.33479007  0.26223641     0.08400
H2751       H  0.10545746  0.30716291  0.27444900     0.08400
H2752       H  0.10844372  0.35467036  0.28157510     0.05200
C2753       C  0.79923397  0.49383583  0.19639467    -0.20600
C2754       C  0.78979609  0.51735534  0.22418385    -0.07200
C2755       C  0.80779563  0.55077151  0.22679116     0.13700
C2756       C  0.83452851  0.55999150  0.20144572    -0.20700
C2757       C  0.84444594  0.53715038  0.17256049    -0.07200
C2758       C  0.82597929  0.50322956  0.17043919     0.13700
C2759       C  0.83276581  0.47711943  0.14055138    -0.24000
H2760       H  0.78459073  0.46832628  0.19437295     0.15000
H2761       H  0.84517421  0.58715130  0.20262607     0.15000
C2762       C  0.79677319  0.57818832  0.25435451    -0.24000
H2763       H  0.81471870  0.45285869  0.14265373     0.05200
H2764       H  0.86093124  0.46801434  0.14198361     0.08400
H2765       H  0.82759641  0.48964542  0.11422574     0.08400
H2766       H  0.80186189  0.56840315  0.28178547     0.08400
H2767       H  0.76759494  0.58360108  0.25162864     0.08400
H2768       H  0.81221668  0.60397803  0.25114744     0.05200
C2769       C  0.82496153  0.48819636  0.29318051    -0.20600
C2770       C  0.79253528  0.50169635  0.30701161    -0.07200
C2771       C  0.79396000  0.51540464  0.34285345     0.13700
C2772       C  0.82359856  0.50790963  0.36514831    -0.20700
C2773       C  0.85375386  0.48950590  0.35222351    -0.07200
C2774       C  0.85634766  0.48633361  0.31417940     0.13700
C2775       C  0.89196877  0.48562223  0.29432188    -0.24000
H2776       H  0.82669521  0.47967000  0.26554218     0.15000
H2777       H  0.82189975  0.51414784  0.39354153     0.15000
C2778       C  0.76584478  0.53913915  0.35853998    -0.24000
H2779       H  0.89404416  0.50870377  0.27563457     0.05200
H2780       H  0.89367578  0.46067577  0.27817990     0.08400
H2781       H  0.91524159  0.48832250  0.31282124     0.08400
H2782       H  0.75228602  0.52565499  0.38169513     0.08400
H2783       H  0.74574679  0.54702300  0.33869167     0.08400
H2784       H  0.77918465  0.56434701  0.36826190     0.05200
C2785       C  0.65246982  0.46887387  0.19689445    -0.20600
C2786       C  0.68238693  0.45096990  0.21004679    -0.07200
C2787       C  0.69575863  0.42243207  0.18958701     0.13700
C2788       C  0.67915745  0.41322913  0.15675360    -0.20700
C2789       C  0.65004777  0.43259586  0.14307865    -0.07200
C2790       C  0.63655118  0.46072557  0.16384724     0.13700
C2791       C  0.60683742  0.48422223  0.15128392    -0.24000
H2792       H  0.64218025  0.49071153  0.21186928     0.15000
H2793       H  0.68936765  0.39086719  0.14164059     0.15000
C2794       C  0.72799538  0.40192042  0.20108242    -0.24000
H2795       H  0.61684800  0.51246739  0.15117311     0.05200
H2796       H  0.58323777  0.48152788  0.16982928     0.08400
H2797       H  0.59783621  0.47815025  0.12362295     0.08400
H2798       H  0.72015442  0.37309976  0.20353466     0.08400
H2799       H  0.73881012  0.41112017  0.22731276     0.08400
H2800       H  0.74988683  0.40502554  0.18062697     0.05200
C2801       C  0.66928856  0.58301616  0.31011431    -0.20600
C2802       C  0.67529084  0.54661533  0.31691395    -0.07200
C2803       C  0.65804686  0.53130409  0.34819294     0.13700
C2804       C  0.63192635  0.55001717  0.36689850    -0.20700
C2805       C  0.62841410  0.58620723  0.36156875    -0.07200
C2806       C  0.64710920  0.60320862  0.33279378     0.13700
C2807       C  0.64461971  0.64288889  0.32699247    -0.24000
H2808       H  0.68320055  0.59620588  0.28789149     0.15000
H2809       H  0.61877978  0.53808689  0.39037266     0.15000
C2810       C  0.66816439  0.49733579  0.36565803    -0.24000
H2811       H  0.66061935  0.65200495  0.30316707     0.05200
H2812       H  0.65511375  0.65774544  0.35074511     0.08400
H2813       H  0.61596618  0.64957039  0.32276157     0.08400
H2814       H  0.69579499  0.49978183  0.37655348     0.08400
H2815       H  0.66550853  0.47668838  0.34587431     0.08400
H2816       H  0.65011158  0.48913810  0.38840390     0.05200
C2817       C  0.61025994  0.56641445  0.20728706    -0.20600
C2818       C  0.62459390  0.58190084  0.17577020    -0.07200
C2819       C  0.66273811  0.58537792  0.17262221     0.13700
C2820       C  0.68479962  0.57184405  0.19995054    -0.20700
C2821       C  0.67036146  0.55425761  0.23063363    -0.07200
C2822       C  0.63192149  0.55257815  0.23429228     0.13700
C2823       C  0.61134567  0.53291664  0.26334454    -0.24000
H2824       H  0.58109056  0.56391057  0.21041607     0.15000
H2825       H  0.71394151  0.57414781  0.19680188     0.15000
C2826       C  0.68066880  0.60457647  0.14160622    -0.24000
H2827       H  0.59700238  0.55220554  0.28065909     0.05200
H2828       H  0.62834292  0.51641507  0.27986993     0.08400
H2829       H  0.59104962  0.51425670  0.25091961     0.08400
H2830       H  0.67241775  0.63268247  0.14200920     0.08400
H2831       H  0.67311179  0.59147441  0.11592464     0.08400
H2832       H  0.71062849  0.60477941  0.14341120     0.05200
C2833       C  0.63894982  0.44447710  0.28658070    -0.20600
C2834       C  0.67531144  0.43711583  0.29284345    -0.07200
C2835       C  0.68346052  0.41695206  0.32379110     0.13700
C2836       C  0.65578324  0.40840885  0.34911574    -0.20700
C2837       C  0.62034548  0.42030306  0.34467035    -0.07200
C2838       C  0.61196490  0.43824684  0.31257610     0.13700
C2839       C  0.57536040  0.45369783  0.30593822    -0.24000
H2840       H  0.63183586  0.45922393  0.26320523     0.15000
H2841       H  0.66236655  0.39379174  0.37301703     0.15000
C2842       C  0.72145440  0.40660351  0.33203521    -0.24000
H2843       H  0.57829997  0.48297508  0.30297769     0.05200
H2844       H  0.55591433  0.44991023  0.32838198     0.08400
H2845       H  0.56347204  0.44192940  0.28115525     0.08400
H2846       H  0.74078574  0.41432439  0.31023539     0.08400
H2847       H  0.72218282  0.37714195  0.33549015     0.08400
H2848       H  0.73047143  0.41986847  0.35728093     0.05200
C2849       C  0.29469621  0.28294311  0.54397859    -0.20600
C2850       C  0.28675275  0.28475734  0.50786234    -0.07200
C2851       C  0.30454535  0.31092504  0.48612430     0.13700
C2852       C  0.33221314  0.33289233  0.50113081    -0.20700
C2853       C  0.34231391  0.32885277  0.53714895    -0.07200
C2854       C  0.32284078  0.30273908  0.55872150     0.13700
C2855       C  0.32963236  0.29350011  0.59765264    -0.24000
H2856       H  0.27977797  0.26407159  0.56099507     0.15000
H2857       H  0.34559014  0.35309612  0.48456984     0.15000
C2858       C  0.29447022  0.31715869  0.44780182    -0.24000
H2859       H  0.30492318  0.29836979  0.61385266     0.05200
H2860       H  0.35201281  0.30810871  0.61049965     0.08400
H2861       H  0.33575104  0.26468500  0.59968790     0.08400
H2862       H  0.27120835  0.30003610  0.43950379     0.08400
H2863       H  0.31786437  0.31186927  0.42990814     0.08400
H2864       H  0.28671766  0.34540205  0.44449381     0.05200
C2865       C  0.19651621  0.31205351  0.51346608    -0.20600
C2866       C  0.20670333  0.28706848  0.48714016    -0.07200
C2867       C  0.19576341  0.29156718  0.45165415     0.13700
C2868       C  0.17710171  0.32164596  0.44268826    -0.20700
C2869       C  0.16398240  0.34596274  0.46862221    -0.07200
C2870       C  0.17433892  0.34110345  0.50483784     0.13700
C2871       C  0.16203793  0.36527899  0.53441019    -0.24000
H2872       H  0.20481727  0.30803199  0.54092989     0.15000
H2873       H  0.16978289  0.32457485  0.41475626     0.15000
C2874       C  0.20143505  0.26352538  0.42316967    -0.24000
H2875       H  0.17349454  0.35777042  0.56067250     0.05200
H2876       H  0.13215851  0.36310507  0.53705347     0.08400
H2877       H  0.17111767  0.39327651  0.52864367     0.08400
H2878       H  0.18503765  0.23919942  0.43013812     0.08400
H2879       H  0.23019491  0.25695013  0.42128948     0.08400
H2880       H  0.19283967  0.27232485  0.39621823     0.05200
C2881       C  0.29496634  0.13833420  0.46109828    -0.20600
C2882       C  0.28402558  0.17153026  0.44851086    -0.07200
C2883       C  0.30583084  0.18911589  0.42243671     0.13700
C2884       C  0.33863118  0.17465271  0.41208074    -0.20700
C2885       C  0.35268601  0.14429704  0.42887925    -0.07200
C2886       C  0.32923122  0.12492646  0.45279906     0.13700
C2887       C  0.33943896  0.09072090  0.47064430    -0.24000
H2888       H  0.27767532  0.12360134  0.47933540     0.15000
H2889       H  0.35369568  0.18855792  0.39123216     0.15000
C2890       C  0.29599376  0.22444608  0.40662158    -0.24000
H2891       H  0.31991513  0.08264274  0.49206883     0.05200
H2892       H  0.36647860  0.09390793  0.48314382     0.08400
H2893       H  0.33826711  0.06849293  0.45093131     0.08400
H2894       H  0.29325039  0.24434953  0.42827754     0.11600
H2895       H  0.27057487  0.22142747  0.39139998     0.08400
H2896       H  0.31703556  0.23518171  0.38772748     0.05200
C2897       C  0.16839485  0.15642556  0.60455243    -0.20600
C2898       C  0.13493123  0.16727960  0.59105877    -0.07200
C2899       C  0.13447765  0.20114384  0.57390574     0.13700
C2900       C  0.16713759  0.22053412  0.56849043    -0.20700
C2901       C  0.20038957  0.20373714  0.57208111    -0.07200
C2902       C  0.20090421  0.17581584  0.59716410     0.13700
C2903       C  0.23340442  0.16934163  0.61984689    -0.24000
H2904       H  0.16953779  0.13359610  0.62170730     0.15000
H2905       H  0.16639930  0.24586989  0.55449758     0.15000
C2906       C  0.10124264  0.21593251  0.55693313    -0.24000
H2907       H  0.22582516  0.17245104  0.64857332     0.05200
H2908       H  0.25563086  0.18921838  0.61429388     0.08400
H2909       H  0.24292598  0.14179311  0.61595334     0.08400
H2910       H  0.09305274  0.24025153  0.57171331     0.08400
H2911       H  0.07821576  0.19627575  0.55594608     0.08400
H2912       H  0.10740212  0.22335588  0.52862889     0.05200
C2913       C  0.32076670  0.18249720  0.55844967    -0.20600
C2914       C  0.28436717  0.17262667  0.55262063    -0.07200
C2915       C  0.27530702  0.13538084  0.55020611     0.13700
C2916       C  0.30183011  0.11034949  0.55694800    -0.20700
C2917       C  0.33791016  0.12031142  0.56486439    -0.07200
C2918       C  0.34792767  0.15723966  0.56110936     0.13700
C2919       C  0.38637897  0.17119806  0.55659939    -0.24000
H2920       H  0.32862532  0.21068192  0.55754232     0.15000
H2921       H  0.29418352  0.08222800  0.55508234     0.15000
C2922       C  0.23890641  0.12051973  0.53853813    -0.24000
H2923       H  0.38767019  0.19969104  0.54814814     0.05200
H2924       H  0.40002341  0.15595259  0.53503161     0.08400
H2925       H  0.40122792  0.17033226  0.58208246     0.08400
H2926       H  0.21824859  0.12365678  0.55951734     0.08400
H2927       H  0.23071115  0.13329335  0.51355269     0.08400
H2928       H  0.23932147  0.09134877  0.53284309     0.05200
C2929       C  0.20265774  0.16826721  0.41739080    -0.20600
C2930       C  0.19785682  0.16891321  0.45451793    -0.07200
C2931       C  0.16752838  0.14977170  0.46996634     0.13700
C2932       C  0.14374099  0.13090673  0.44800493    -0.20700
C2933       C  0.14924132  0.12975893  0.41138473    -0.07200
C2934       C  0.17869325  0.14922247  0.39539989     0.13700
C2935       C  0.18454768  0.15186112  0.35550927    -0.24000
H2936       H  0.22466425  0.18370527  0.40533232     0.15000
H2937       H  0.12128051  0.11551209  0.45990017     0.15000
C2938       C  0.15853507  0.14630299  0.50896801    -0.24000
H2939       H  0.19175704  0.12564278  0.34418472     0.05200
H2940       H  0.15996773  0.16209517  0.34306308     0.08400
H2941       H  0.20718573  0.17087532  0.34843244     0.08400
H2942       H  0.13177987  0.15786788  0.51427651     0.08400
H2943       H  0.17851050  0.15923062  0.52585235     0.08400
H2944       H  0.15718838  0.11761336  0.51673755     0.05200
C2945       C  0.45168675  0.20762709  0.29993389    -0.20600
C2946       C  0.48730977  0.21981093  0.30116208    -0.07200
C2947       C  0.51020699  0.20853273  0.32876216     0.13700
C2948       C  0.49625408  0.18445262  0.35494553    -0.20700
C2949       C  0.45954045  0.17322658  0.35477819    -0.07200
C2950       C  0.43663616  0.18679993  0.32719372     0.13700
C2951       C  0.39611809  0.17991022  0.32369765    -0.24000
H2952       H  0.43459455  0.21659212  0.27839909     0.15000
H2953       H  0.51389541  0.17496102  0.37556151     0.15000
C2954       C  0.54882115  0.22227566  0.33079922    -0.24000
H2955       H  0.38229921  0.20584091  0.32465133     0.05200
H2956       H  0.38321470  0.16265899  0.34422043     0.08400
H2957       H  0.39034800  0.16689518  0.29741541     0.08400
H2958       H  0.54968133  0.25185627  0.33353929     0.08400
H2959       H  0.56375910  0.21495079  0.30609772     0.08400
H2960       H  0.56289864  0.21097692  0.35416181     0.05200
C2961       C  0.48467616  0.34084095  0.30284166    -0.20600
C2962       C  0.48743734  0.30363392  0.30628783    -0.07200
C2963       C  0.48584473  0.29108165  0.34215484     0.13700
C2964       C  0.50296813  0.31206900  0.36868365    -0.20700
C2965       C  0.50929678  0.34880627  0.36296538    -0.07200
C2966       C  0.49329359  0.36365135  0.33181746     0.13700
C2967       C  0.48806591  0.40310128  0.32687376    -0.24000
H2968       H  0.47725969  0.35260340  0.27762537     0.15000
H2969       H  0.50687899  0.30093621  0.39509481     0.15000
C2970       C  0.45271111  0.27057305  0.35532143    -0.24000
H2971       H  0.50418331  0.41290483  0.30342727     0.05200
H2972       H  0.45907798  0.40762873  0.32168815     0.08400
H2973       H  0.49581040  0.41908461  0.35078602     0.08400
H2974       H  0.46031936  0.24612265  0.36958929     0.08400
H2975       H  0.43362003  0.26459486  0.33320911     0.08400
H2976       H  0.43752239  0.28710558  0.37480528     0.05200
C2977       C  0.56719512  0.18464474  0.22247632    -0.20600
C2978       C  0.56514774  0.21659979  0.20281469    -0.07200
C2979       C  0.57028176  0.21353069  0.16475045     0.13700
C2980       C  0.57600205  0.17970019  0.14897260    -0.20700
C2981       C  0.56932178  0.14775519  0.16808807    -0.07200
C2982       C  0.56248656  0.15113196  0.20556860     0.13700
C2983       C  0.54451242  0.12183137  0.22786059    -0.24000
H2984       H  0.56275907  0.18574790  0.25122577     0.15000
H2985       H  0.58157478  0.17847968  0.12049244     0.15000
C2986       C  0.56442761  0.24308442  0.13863755    -0.24000
H2987       H  0.52044740  0.13240356  0.24189770     0.05200
H2988       H  0.56357388  0.11239230  0.24833759     0.08400
H2989       H  0.53416696  0.09906499  0.21134198     0.08400
H2990       H  0.55481249  0.26714026  0.15194525     0.08400
H2991       H  0.54356053  0.23440849  0.11891887     0.08400
H2992       H  0.58991352  0.24956626  0.12379093     0.05200
C2993       C  0.43410053  0.32794281  0.20763016    -0.20600
C2994       C  0.45874887  0.30755048  0.18858025    -0.07200
C2995       C  0.47115737  0.31980562  0.15464687     0.13700
C2996       C  0.46143840  0.35354607  0.14233745    -0.20700
C2997       C  0.43720809  0.37440045  0.16170237    -0.07200
C2998       C  0.42197845  0.36029257  0.19426858     0.13700
C2999       C  0.39118536  0.37704321  0.21428494    -0.24000
H3000       H  0.42493302  0.31883984  0.23389691     0.15000
H3001       H  0.47203008  0.36307673  0.11674989     0.15000
C3002       C  0.49383743  0.29778045  0.13027625    -0.24000
H3003       H  0.37855862  0.35833256  0.23421573     0.05200
H3004       H  0.36954208  0.38422534  0.19543950     0.08400
H3005       H  0.40135338  0.40059522  0.22961559     0.08400
H3006       H  0.49635135  0.27050234  0.14083135     0.08400
H3007       H  0.52084327  0.31114592  0.12652963     0.08400
H3008       H  0.48060107  0.29503791  0.10374451     0.05200
C3009       C  0.60247277  0.29553266  0.18968638    -0.20600
C3010       C  0.57335095  0.30701975  0.21030407    -0.07200
C3011       C  0.56826119  0.34439428  0.21010490     0.13700
C3012       C  0.57597775  0.36345574  0.17854887    -0.20700
C3013       C  0.59658467  0.34804285  0.15105075    -0.07200
C3014       C  0.61566758  0.31665170  0.16083700     0.13700
C3015       C  0.65138441  0.30630506  0.14478668    -0.24000
H3016       H  0.61363656  0.26962317  0.19445774     0.15000
H3017       H  0.56701490  0.39055361  0.17668020     0.15000
C3018       C  0.56019737  0.36515830  0.24382596    -0.24000
H3019       H  0.67018954  0.29930850  0.16654779     0.05200
H3020       H  0.66495897  0.32883556  0.13044344     0.08400
H3021       H  0.64778281  0.28265725  0.12693053     0.08400
H3022       H  0.58306501  0.38433744  0.24923810     0.08400
H3023       H  0.55729475  0.34723680  0.26746148     0.08400
H3024       H  0.53530630  0.38060182  0.24061922     0.05200
C3025       C  0.47904229  0.19615884  0.16436473    -0.20600
C3026       C  0.45840227  0.22223115  0.18155224    -0.07200
C3027       C  0.42178163  0.22477054  0.17194333     0.13700
C3028       C  0.40840560  0.20386344  0.14325160    -0.20700
C3029       C  0.43007230  0.17860265  0.12572377    -0.07200
C3030       C  0.46578021  0.17484959  0.13644336     0.13700
C3031       C  0.49088511  0.14923300  0.11850497    -0.24000
H3032       H  0.50594412  0.19184026  0.17276921     0.15000
H3033       H  0.38011404  0.20539610  0.13627475     0.15000
C3034       C  0.39529108  0.24582166  0.19359361    -0.24000
H3035       H  0.51478492  0.16456170  0.10793359     0.05200
H3036       H  0.47872142  0.13471480  0.09544199     0.08400
H3037       H  0.49946629  0.12920300  0.13831475     0.08400
H3038       H  0.40731074  0.25701025  0.21847027     0.08400
H3039       H  0.37224100  0.22789628  0.20202079     0.08400
H3040       H  0.38485991  0.26780325  0.17713337     0.05200
C3041       C  0.29399566  0.49277275  0.31415011    -0.20600
C3042       C  0.28587024  0.51424536  0.28467087    -0.07200
C3043       C  0.30132512  0.54880028  0.28209790     0.13700
C3044       C  0.32519400  0.56066705  0.30859166    -0.20700
C3045       C  0.33665888  0.53838778  0.33687336    -0.07200
C3046       C  0.31979035  0.50377736  0.33984987     0.13700
C3047       C  0.32659511  0.47863836  0.37022473    -0.24000
H3048       H  0.27983179  0.46707390  0.31703448     0.15000
H3049       H  0.33459709  0.58839780  0.30741361     0.15000
C3050       C  0.29151432  0.57398830  0.25240854    -0.24000
H3051       H  0.30808798  0.45464190  0.36947922     0.05200
H3052       H  0.32192508  0.49218933  0.39633601     0.08400
H3053       H  0.35441007  0.46868420  0.36789651     0.08400
H3054       H  0.26190849  0.57746726  0.25194018     0.08400
H3055       H  0.30031515  0.56315697  0.22619127     0.08400
H3056       H  0.30480622  0.60085829  0.25567923     0.05200
C3057       C  0.30286554  0.50928538  0.17567545    -0.20600
C3058       C  0.29482348  0.48942413  0.20692440    -0.07200
C3059       C  0.32214414  0.46836499  0.22105241     0.13700
C3060       C  0.35688331  0.47001218  0.20582622    -0.20700
C3061       C  0.36386972  0.48431070  0.17119880    -0.07200
C3062       C  0.33647182  0.50635493  0.15721275     0.13700
C3063       C  0.34136962  0.52475970  0.12157686    -0.24000
H3064       H  0.28221460  0.52598948  0.16487194     0.15000
H3065       H  0.37647500  0.45418618  0.21890675     0.15000
C3066       C  0.31486639  0.44031379  0.24949649    -0.24000
H3067       H  0.31794595  0.54136890  0.11516844     0.05200
H3068       H  0.34391852  0.50471511  0.09975805     0.08400
H3069       H  0.36587993  0.54266194  0.12220602     0.08400
H3070       H  0.28615583  0.43818783  0.25808261     0.08400
H3071       H  0.33218543  0.44592694  0.27312678     0.08400
H3072       H  0.32165230  0.41367403  0.23853927     0.05200
C3073       C  0.14735352  0.53783844  0.12860387    -0.20600
C3074       C  0.15479130  0.57391667  0.12497423    -0.07200
C3075       C  0.17684492  0.59227271  0.15035600     0.13700
C3076       C  0.18995074  0.57325137  0.17993308    -0.20700
C3077       C  0.18268675  0.53626030  0.18354918    -0.07200
C3078       C  0.16147384  0.51875895  0.15668551     0.13700
C3079       C  0.15159482  0.48024476  0.15725073    -0.24000
H3080       H  0.13055239  0.52429683  0.10865507     0.15000
H3081       H  0.20653271  0.58705805  0.19977023     0.15000
C3082       C  0.18592941  0.63168042  0.14667640    -0.24000
H3083       H  0.13064196  0.47250300  0.13731420     0.05200
H3084       H  0.17570113  0.46511593  0.15029784     0.08400
H3085       H  0.13988114  0.47448546  0.18368960     0.08400
H3086       H  0.16086629  0.64710682  0.14538495     0.08400
H3087       H  0.20206352  0.63658726  0.12184262     0.08400
H3088       H  0.20207681  0.64196213  0.16970042     0.05200
C3089       C  0.15925546  0.46915657  0.32023445    -0.20600
C3090       C  0.18235334  0.44755725  0.29997141    -0.07200
C3091       C  0.18808824  0.41234598  0.31155103     0.13700
C3092       C  0.17121377  0.40042807  0.34340630    -0.20700
C3093       C  0.14976202  0.42312243  0.36448183    -0.07200
C3094       C  0.14372156  0.45801114  0.35261324     0.13700
C3095       C  0.12328509  0.48524450  0.37405184    -0.24000
H3096       H  0.15460691  0.49600440  0.31181705     0.15000
H3097       H  0.17555234  0.37334540  0.35238221     0.15000
C3098       C  0.21276592  0.38721102  0.29229957    -0.24000
H3099       H  0.14079111  0.50962644  0.37804720     0.05200
H3100       H  0.11494445  0.47580452  0.40101389     0.08400
H3101       H  0.09884790  0.49277373  0.35914466     0.08400
H3102       H  0.22684891  0.39944715  0.26886479     0.08400
H3103       H  0.23388154  0.37845065  0.31101142     0.08400
H3104       H  0.19681506  0.36333139  0.28296818     0.05200
C3105       C  0.18674296  0.57369243  0.29485966    -0.20600
C3106       C  0.17111928  0.55184142  0.26820730    -0.07200
C3107       C  0.13321629  0.54523264  0.26975585     0.13700
C3108       C  0.11312114  0.55763760  0.29942569    -0.20700
C3109       C  0.12916621  0.57807912  0.32730433    -0.07200
C3110       C  0.16661104  0.58696961  0.32385064     0.13700
C3111       C  0.18583871  0.61173015  0.34927639    -0.24000
H3112       H  0.21572133  0.57872203  0.29414932     0.15000
H3113       H  0.08423126  0.55185942  0.30060373     0.15000
C3114       C  0.11390270  0.52343585  0.24152576    -0.24000
H3115       H  0.21526190  0.61467783  0.34328891     0.05200
H3116       H  0.18287912  0.60129633  0.37689921     0.08400
H3117       H  0.17443838  0.63842740  0.34616265     0.08400
H3118       H  0.08471349  0.51917668  0.24795684     0.08400
H3119       H  0.12596090  0.49694837  0.23943721     0.08400
H3120       H  0.11600122  0.53747857  0.21542222     0.05200
C3121       C  0.15488908  0.39687917  0.16397277    -0.20600
C3122       C  0.11865035  0.40258759  0.17374894    -0.07200
C3123       C  0.11118568  0.41517092  0.20887715     0.13700
C3124       C  0.14004439  0.42588013  0.23105433    -0.20700
C3125       C  0.17623622  0.42629086  0.21869326    -0.07200
C3126       C  0.18372367  0.40785414  0.18637640     0.13700
C3127       C  0.22180115  0.40186669  0.17361922    -0.24000
H3128       H  0.16110858  0.38598017  0.13786498     0.15000
H3129       H  0.13320694  0.43867743  0.25597093     0.15000
C3130       C  0.07318264  0.42241942  0.22162543    -0.24000
H3131       H  0.22517725  0.37291904  0.16827653     0.05200
H3132       H  0.24215426  0.41044284  0.19385183     0.08400
H3133       H  0.22724889  0.41695287  0.14843751     0.08400
H3134       H  0.05781772  0.39704947  0.22691215     0.08400
H3135       H  0.05905052  0.43839515  0.20133414     0.08400
H3136       H  0.07303545  0.43785610  0.24714845     0.05200
C3137       C  0.78577393  0.81098749  0.04243733    -0.20600
C3138       C  0.79117827  0.79897274  0.00766407    -0.07200
C3139       C  0.81878376  0.81639418  0.98673858     0.13700
C3140       C  0.83921272  0.84630759  0.00109001    -0.20700
C3141       C  0.83516556  0.85730193  0.03726483    -0.07200
C3142       C  0.80897946  0.83662179  0.05840400     0.13700
C3143       C  0.80601952  0.83668348  0.09885576    -0.24000
H3144       H  0.76560031  0.79687348  0.05893783     0.15000
H3145       H  0.86016379  0.85927909  0.98482017     0.15000
C3146       C  0.82744783  0.80267957  0.94983224    -0.24000
H3147       H  0.78087984  0.84995113  0.10723129     0.05200
H3148       H  0.82967822  0.84853406  0.11247176     0.08400
H3149       H  0.80441232  0.80876895  0.10900912     0.08400
H3150       H  0.80341431  0.80443632  0.93255479     0.08400
H3151       H  0.83537880  0.77433143  0.95144072     0.08400
H3152       H  0.85004742  0.81844789  0.93712131     0.05200
C3153       C  0.69152875  0.81267047  0.00674335    -0.20600
C3154       C  0.71261032  0.79551576  0.98081381    -0.07200
C3155       C  0.70917045  0.80476476  0.94453761     0.13700
C3156       C  0.68477969  0.83047585  0.93508526    -0.20700
C3157       C  0.66194634  0.84724085  0.96029374    -0.07200
C3158       C  0.66620563  0.83848531  0.99718162     0.13700
C3159       C  0.64447405  0.85479828  0.02684230    -0.24000
H3160       H  0.69409589  0.80484868  0.03456282     0.15000
H3161       H  0.68243604  0.83644647  0.90673131     0.15000
C3162       C  0.72956106  0.78717532  0.91449545    -0.24000
H3163       H  0.65263233  0.84514173  0.05364202     0.05200
H3164       H  0.61549878  0.84698706  0.02371903     0.08400
H3165       H  0.64896005  0.88429533  0.02686294     0.08400
H3166       H  0.71022055  0.77511621  0.89494930     0.08400
H3167       H  0.74684024  0.76589307  0.92414243     0.08400
H3168       H  0.74681069  0.80752961  0.90027181     0.05200
C3169       C  0.67622677  0.66403362  0.03262612    -0.20600
C3170       C  0.69482497  0.69196787  0.05048626    -0.07200
C3171       C  0.68244758  0.70222277  0.08462458     0.13700
C3172       C  0.65218791  0.68381918  0.09985314    -0.20700
C3173       C  0.63413145  0.65502086  0.08182336    -0.07200
C3174       C  0.64653351  0.64528901  0.04750203     0.13700
C3175       C  0.62835466  0.61684499  0.02465372    -0.24000
H3176       H  0.68462288  0.65688525  0.00637615     0.15000
H3177       H  0.64256240  0.69191889  0.12612036     0.15000
C3178       C  0.70007531  0.73339118  0.10410878    -0.24000
H3179       H  0.61928638  0.62886995  0.99918952     0.05200
H3180       H  0.60447977  0.60422954  0.03777342     0.08400
H3181       H  0.64777773  0.59565154  0.01829217     0.08400
H3182       H  0.69863522  0.75792510  0.08752662     0.08400
H3183       H  0.72885501  0.72787577  0.10924160     0.08400
H3184       H  0.68653500  0.73848934  0.13027419     0.05200
C3185       C  0.81981220  0.65873618  0.97851044    -0.20600
C3186       C  0.80020314  0.68118938  0.95608915    -0.07200
C3187       C  0.81127264  0.68572073  0.92008750     0.13700
C3188       C  0.84244890  0.66901899  0.90810428    -0.20700
C3189       C  0.86217546  0.64730530  0.93103439    -0.07200
C3190       C  0.85013058  0.64098356  0.96614317     0.13700
C3191       C  0.86992610  0.61656345  0.99067340    -0.24000
H3192       H  0.81179934  0.65542328  0.00604448     0.15000
H3193       H  0.85188619  0.67318104  0.88074226     0.15000
C3194       C  0.79212238  0.70982327  0.89488812    -0.24000
H3195       H  0.85652412  0.61431606  0.01729601     0.05200
H3196       H  0.89807394  0.62696996  0.99453770     0.08400
H3197       H  0.87051237  0.58930000  0.97883477     0.08400
H3198       H  0.76322474  0.70138250  0.89281008     0.08400
H3199       H  0.80405542  0.70917712  0.86743439     0.08400
H3200       H  0.79483459  0.73769147  0.90479750     0.05200
C3201       C  0.68664462  0.69159703  0.92323944    -0.20600
C3202       C  0.71374326  0.67681692  0.94400076    -0.07200
C3203       C  0.71157459  0.63925532  0.94976928     0.13700
C3204       C  0.67947622  0.61985820  0.94120394    -0.20700
C3205       C  0.65175695  0.63488194  0.92112600    -0.07200
C3206       C  0.65816562  0.67047401  0.90882160     0.13700
C3207       C  0.63920708  0.68596868  0.87754848    -0.24000
H3208       H  0.68841278  0.71985772  0.91709741     0.15000
H3209       H  0.67709379  0.59166332  0.94791900     0.15000
C3210       C  0.74154345  0.61925602  0.96642358    -0.24000
H3211       H  0.65939591  0.69775662  0.85834472     0.05200
H3212       H  0.62153243  0.70748799  0.88700213     0.08400
H3213       H  0.62427171  0.66515220  0.86231031     0.08400
H3214       H  0.73338679  0.59104892  0.97248822     0.08400
H3215       H  0.74976892  0.63219848  0.99169727     0.08400
H3216       H  0.76467568  0.61857578  0.94736144     0.05200
C3217       C  0.76662907  0.64898472  0.06055505    -0.20600
C3218       C  0.77853767  0.68514138  0.06137068    -0.07200
C3219       C  0.81250885  0.69341780  0.07706442     0.13700
C3220       C  0.83524207  0.66555300  0.08686145    -0.20700
C3221       C  0.82462793  0.62937192  0.08244830    -0.07200
C3222       C  0.78946187  0.62113952  0.06941221     0.13700
C3223       C  0.77582621  0.58338670  0.06174820    -0.24000
H3224       H  0.74071849  0.64160325  0.04947224     0.15000
H3225       H  0.86113825  0.67216140  0.09880612     0.15000
C3226       C  0.82396862  0.73153992  0.08573516    -0.24000
H3227       H  0.76736779  0.58124062  0.03330714     0.05200
H3228       H  0.75211586  0.57677074  0.07927685     0.08400
H3229       H  0.79651899  0.56305375  0.06556079     0.08400
H3230       H  0.80440574  0.74277771  0.10514178     0.08400
H3231       H  0.82544127  0.74880025  0.06181487     0.08400
H3232       H  0.85119052  0.73301776  0.09774539     0.05200
C3233       C  0.32313519  0.82560126  0.50821668    -0.20600
C3234       C  0.29332969  0.82194258  0.48523468    -0.07200
C3235       C  0.28526915  0.85160481  0.46349991     0.13700
C3236       C  0.30591116  0.88345752  0.46664223    -0.20700
C3237       C  0.34095365  0.88358781  0.48140166    -0.07200
C3238       C  0.34762369  0.85536288  0.50591118     0.13700
C3239       C  0.38197560  0.85448630  0.52716395    -0.24000
H3240       H  0.32891205  0.80404047  0.52617972     0.15000
H3241       H  0.29770923  0.90520095  0.45002439     0.15000
C3242       C  0.25882045  0.84985116  0.43288704    -0.24000
H3243       H  0.38533033  0.87949688  0.54309123     0.05200
H3244       H  0.40555501  0.85118002  0.50901449     0.08400
H3245       H  0.38158102  0.83167474  0.54621070     0.08400
H3246       H  0.23605798  0.86768361  0.43858522     0.08400
H3247       H  0.24854461  0.82246350  0.42684180     0.08400
H3248       H  0.27265291  0.85923142  0.40787900     0.05200
C3249       C  0.22183283  0.82689866  0.53279624    -0.20600
C3250       C  0.21275386  0.81552186  0.49826524    -0.07200
C3251       C  0.18270947  0.83060443  0.48152409     0.13700
C3252       C  0.16316910  0.85702231  0.49960169    -0.20700
C3253       C  0.17158818  0.86812978  0.53491450    -0.07200
C3254       C  0.20165063  0.85180311  0.55174286     0.13700
C3255       C  0.21178220  0.85717323  0.59071480    -0.24000
H3256       H  0.24418005  0.81445359  0.54598851     0.15000
H3257       H  0.13941432  0.86672713  0.48664031     0.15000
C3258       C  0.16999385  0.81921236  0.44494016    -0.24000
H3259       H  0.23234688  0.83814210  0.59949205     0.05200
H3260       H  0.18804525  0.85229412  0.60853734     0.08400
H3261       H  0.22431898  0.88410970  0.59496752     0.08400
H3262       H  0.16983035  0.84277628  0.42689732     0.08400
H3263       H  0.14218955  0.80723149  0.44694970     0.08400
H3264       H  0.18770670  0.79939480  0.43270160     0.05200
C3265       C  0.20900945  0.66897628  0.44096316    -0.20600
C3266       C  0.21612889  0.70297242  0.42610734    -0.07200
C3267       C  0.19326412  0.71457871  0.39886382     0.13700
C3268       C  0.16332372  0.69310161  0.38897295    -0.20700
C3269       C  0.15262183  0.66147973  0.40776555    -0.07200
C3270       C  0.17683646  0.64886684  0.43379742     0.13700
C3271       C  0.16824707  0.61633506  0.45639725    -0.24000
H3272       H  0.22743660  0.65940545  0.46034147     0.15000
H3273       H  0.14773837  0.70211093  0.36650605     0.15000
C3274       C  0.19911496  0.74977635  0.37976956    -0.24000
H3275       H  0.18597975  0.61554360  0.48025642     0.05200
H3276       H  0.17303957  0.59166202  0.44079465     0.08400
H3277       H  0.13987558  0.61666666  0.46635315     0.08400
H3278       H  0.22183613  0.76622482  0.39086472     0.08400
H3279       H  0.20485712  0.74469178  0.35093178     0.08400
H3280       H  0.17421294  0.76545591  0.38180693     0.05200
C3281       C  0.32184962  0.72319774  0.55211554    -0.20600
C3282       C  0.29174957  0.70461361  0.53788658    -0.07200
C3283       C  0.29443164  0.66664061  0.53438527     0.13700
C3284       C  0.32665595  0.64981491  0.54388053    -0.20700
C3285       C  0.35786331  0.66919334  0.55466727    -0.07200
C3286       C  0.35566710  0.70734883  0.55450920     0.13700
C3287       C  0.38763886  0.73250257  0.54694769    -0.24000
H3288       H  0.32095490  0.75200559  0.55417850     0.15000
H3289       H  0.32738520  0.62106529  0.54135740     0.15000
C3290       C  0.26527158  0.64212725  0.51979663    -0.24000
H3291       H  0.38079584  0.75180309  0.52560867     0.05200
H3292       H  0.41114269  0.71821949  0.53595485     0.08400
H3293       H  0.39485660  0.74809970  0.57141710     0.08400
H3294       H  0.24026471  0.65568008  0.51490926     0.08400
H3295       H  0.25871383  0.62061814  0.53952275     0.08400
H3296       H  0.27470272  0.62977865  0.49436384     0.05200
C3297       C  0.15150353  0.66211170  0.53979740    -0.20600
C3298       C  0.16501306  0.64798397  0.57131901    -0.07200
C3299       C  0.19553605  0.66627157  0.58720825     0.13700
C3300       C  0.21354154  0.69423884  0.56844245    -0.20700
C3301       C  0.20247152  0.70545958  0.53460381    -0.07200
C3302       C  0.16760221  0.69218090  0.52296240     0.13700
C3303       C  0.14366661  0.71046397  0.49659953    -0.24000
H3304       H  0.12737831  0.64991087  0.52819139     0.15000
H3305       H  0.23699037  0.70736013  0.58036734     0.15000
C3306       C  0.20913462  0.65909569  0.62442251    -0.24000
H3307       H  0.11561551  0.69887928  0.49678807     0.05200
H3308       H  0.14107530  0.73900513  0.50428398     0.08400
H3309       H  0.15325231  0.70719597  0.46878515     0.08400
H3310       H  0.22041233  0.63231463  0.62680305     0.08400
H3311       H  0.18737732  0.66333565  0.64411054     0.08400
H3312       H  0.23151755  0.67802956  0.63211550     0.05200
C3313       C  0.33025067  0.69042029  0.45638261    -0.20600
C3314       C  0.30187353  0.70293854  0.43497503    -0.07200
C3315       C  0.29981655  0.68943529  0.39959304     0.13700
C3316       C  0.31947713  0.65920157  0.39016326    -0.20700
C3317       C  0.34430192  0.64401878  0.41388031    -0.07200
C3318       C  0.35217916  0.66236391  0.44589715     0.13700
C3319       C  0.38340643  0.65307780  0.46939699    -0.24000
H3320       H  0.33594519  0.70187359  0.48207088     0.15000
H3321       H  0.31620397  0.64811309  0.36342457     0.15000
C3322       C  0.28046143  0.70807678  0.37023424    -0.24000
H3323       H  0.38492585  0.67015354  0.49338615     0.05200
H3324       H  0.40936458  0.65957701  0.45575370     0.08400
H3325       H  0.38138634  0.62459158  0.47773912     0.08400
H3326       H  0.27153091  0.73460849  0.37906066     0.08400
H3327       H  0.25719437  0.69116092  0.36084873     0.08400
H3328       H  0.29933829  0.71300080  0.34728961     0.05200
loop_ 
_geom_bond_atom_site_label_1 
_geom_bond_atom_site_label_2 
_geom_bond_distance 
_geom_bond_site_symmetry_2 
_ccdc_geom_bond_type 
C1            H2   1.105       .  S
C1            C7   1.537       .  S
C1            C6   1.565       .  S
C1            C5   1.536       .  S
C3            H4   1.084       .  S
C3            C9   1.547       .  S
C3            C8   1.552       .  S
C3           C10   1.524       .  S
C5            C8   1.392       .  D
C5         C3314   1.521       .  S
C6            C9   1.410       .  D
C6         C3282   1.525       .  S
C7           C10   1.359       .  D
C7         C3234   1.508       .  S
C8         C3266   1.494       .  S
C9         C3301   1.526       .  S
C10        C3250   1.500       .  S
C11          H12   1.112       .  S
C11          C17   1.541       .  S
C11          C16   1.537   1_556  S
C11          C15   1.535       .  S
C13          H14   1.108       .  S
C13          C19   1.557       .  S
C13          C18   1.545   1_554  S
C13          C20   1.543   1_554  S
C15          C18   1.370       .  D
C15        C3154   1.479       .  S
C16          C19   1.387       .  D
C16        C3170   1.496       .  S
C17          C20   1.382       .  D
C17        C3202   1.508       .  S
C18        C3138   1.513   1_556  S
C19        C3218   1.508       .  S
C20        C3186   1.481       .  S
C21          H22   1.112       .  S
C21          C27   1.536       .  S
C21          C26   1.522       .  S
C21          C25   1.509       .  S
C23          H24   1.104       .  S
C23          C29   1.571       .  S
C23          C28   1.553       .  S
C23          C30   1.554       .  S
C25          C28   1.367       .  D
C25        C3042   1.477       .  S
C26          C29   1.383       .  D
C26        C3090   1.489       .  S
C27          C30   1.386       .  D
C27        C3106   1.499       .  S
C28        C3058   1.504       .  S
C29        C3125   1.511       .  S
C30        C3077   1.503       .  S
C31          H32   1.110       .  S
C31          C37   1.534       .  S
C31          C36   1.543       .  S
C31          C35   1.537       .  S
C33          H34   1.090       .  S
C33          C39   1.566       .  S
C33          C38   1.546       .  S
C33          C40   1.531       .  S
C35          C38   1.371       .  D
C35        C2946   1.464       .  S
C36          C39   1.404       .  D
C36        C2978   1.523       .  S
C37          C40   1.372       .  D
C37        C3026   1.497       .  S
C38        C2962   1.531       .  S
C39        C3010   1.514       .  S
C40        C2994   1.484       .  S
C41          H42   1.112       .  S
C41          C47   1.552       .  S
C41          C46   1.514       .  S
C41          C45   1.541       .  S
C43          H44   1.108       .  S
C43          C49   1.540       .  S
C43          C48   1.523       .  S
C43          C50   1.558       .  S
C45          C48   1.359       .  D
C45        C2850   1.472       .  S
C46          C49   1.377       .  D
C46        C2882   1.491       .  S
C47          C50   1.392       .  D
C47        C2914   1.502       .  S
C48        C2866   1.481       .  S
C49        C2930   1.478       .  S
C50        C2901   1.519       .  S
C51          H52   1.095       .  S
C51          C57   1.548       .  S
C51          C56   1.565       .  S
C51          C55   1.565       .  S
C53          H54   1.111       .  S
C53          C59   1.547       .  S
C53          C58   1.523       .  S
C53          C60   1.535       .  S
C55          C58   1.383       .  D
C55        C2834   1.501       .  S
C56          C59   1.400       .  D
C56        C2802   1.524       .  S
C57          C60   1.376       .  D
C57        C2770   1.535       .  S
C58        C2786   1.500       .  S
C59        C2821   1.525       .  S
C60        C2754   1.485       .  S
C61          H62   1.105       .  S
C61          C67   1.543   1_455  S
C61          C66   1.540   1_455  S
C61          C65   1.549       .  S
C63          H64   1.111       .  S
C63          C69   1.546       .  S
C63          C68   1.528   1_655  S
C63          C70   1.513       .  S
C65          C68   1.380       .  D
C65        C2738   1.489       .  S
C66          C69   1.383       .  D
C66        C2706   1.509       .  S
C67          C70   1.372       .  D
C67        C2661   1.492       .  S
C68        C2693   1.489       .  S
C69        C2725   1.477       .  S
C70        C2674   1.492       .  S
C71          H72   1.111       .  S
C71          C77   1.535   1_545  S
C71          C76   1.534       .  S
C71          C75   1.533       .  S
C73          H74   1.087   1_545  S
C73          C79   1.542       .  S
C73          C78   1.504       .  S
C73          C80   1.540   1_545  S
C75          C78   1.359       .  D
C75        C2562   1.441       .  S
C76          C79   1.402       .  D
C76        C2594   1.521       .  S
C77          C80   1.380       .  D
C77        C2629   1.497       .  S
C78        C2581   1.498       .  S
C79        C2645   1.480       .  S
C80        C2613   1.480       .  S
C81          H82   1.087       .  S
C81          C87   1.515       .  S
C81          C86   1.549       .  S
C81          C85   1.536       .  S
C83          H84   1.106       .  S
C83          C89   1.555       .  S
C83          C88   1.536       .  S
C83          C90   1.533       .  S
C85          C88   1.382       .  D
C85        C2546   1.489       .  S
C86          C89   1.413       .  D
C86        C2498   1.512       .  S
C87          C90   1.344       .  D
C87        C2466   1.462       .  S
C88        C2514   1.487       .  S
C89        C2533   1.536       .  S
C90        C2482   1.483       .  S
C91          C92   1.556       .  S
C91          C97   1.521       .  S
C91          C95   1.525       .  S
C91        C2450   1.536       .  S
C92          C93   1.386       .  D
C92          H99   1.084   1_655  S
C93          C94   1.530       .  S
C93         C173   1.477       .  S
C94         H100   1.101       .  S
C94          C98   1.535       .  S
C94          C96   1.529       .  S
C95          C96   1.369       .  D
C95         H101   1.084       .  S
C96        C2517   1.494       .  S
C97          C98   1.352       .  D
C97         H102   1.088       .  S
C98        C2626   1.467       .  S
C103        C104   1.549       .  S
C103        C109   1.524       .  S
C103        C107   1.544       .  S
C103       C2437   1.559       .  S
C104        C105   1.367       .  D
C104        H111   1.081       .  S
C105        C106   1.568       .  S
C105       C2597   1.539       .  S
C106        H112   1.108       .  S
C106        C110   1.548       .  S
C106        C108   1.597       .  S
C107        C108   1.382       .  D
C107        H113   1.084       .  S
C108        C177   1.541       .  S
C109        C110   1.345       .  D
C109        H114   1.089       .  S
C110       C2722   1.478       .  S
C115        C116   1.538       .  S
C115        C121   1.531       .  S
C115        C119   1.564       .  S
C115       C2418   1.564       .  S
C116        C117   1.355       .  D
C116        H123   1.084       .  S
C117        C118   1.547       .  S
C117       C2402   1.488       .  S
C118        H124   1.102       .  S
C118        C122   1.553       .  S
C118        C120   1.580       .  S
C119        C120   1.388       .  D
C119        H125   1.083   1_565  S
C120        C170   1.537       .  S
C121        C122   1.360       .  D
C121        H126   1.088       .  S
C122       C2530   1.521       .  S
C127        C128   1.573       .  S
C127        C133   1.524       .  S
C127        C131   1.548       .  S
C127       C2386   1.557       .  S
C128        C129   1.402       .  D
C128        H135   1.085       .  S
C129        C130   1.555       .  S
C129        C176   1.528       .  S
C130        H136   1.109       .  S
C130        C134   1.524       .  S
C130        C132   1.528       .  S
C131        C132   1.364       .  D
C131        H137   1.083       .  S
C132       C2690   1.486       .  S
C133        C134   1.333       .  D
C133        H138   1.088       .  S
C134       C2933   1.455       .  S
C139        C140   1.545       .  S
C139        C145   1.529       .  S
C139        C143   1.547       .  S
C139       C2370   1.559       .  S
C140        C141   1.355       .  D
C140        H147   1.084       .  S
C141        C142   1.541       .  S
C141       C2898   1.504       .  S
C142        H148   1.109       .  S
C142        C146   1.563       .  S
C142        C144   1.592       .  S
C143        C144   1.383       .  D
C143        H149   1.081       .  S
C144        C184   1.532       .  S
C145        C146   1.357       .  D
C145        H150   1.084       .  S
C146       C2354   1.517       .  S
C151        C152   1.546       .  S
C151        C157   1.521       .  S
C151        C155   1.534       .  S
C151       C3253   1.541       .  S
C152        C153   1.379       .  D
C152        H159   1.085       .  S
C153        C154   1.565       .  S
C153        C166   1.505       .  S
C154        H160   1.110       .  S
C154        C158   1.554       .  S
C154        C156   1.541       .  S
C155        C156   1.363       .  D
C155        H161   1.081       .  S
C156       C2322   1.481       .  S
C157        C158   1.350       .  D
C157        H162   1.089       .  S
C158       C2338   1.487       .  S
O163       Ni169   1.978       .  S
O163        C184   1.288       .  A
O164       Ni187   1.923   1_565  S
O164        C173   1.269       .  A
O165       Ni169   1.916   1_655  S
O165       Ni187   1.922       .  S
O165       Ni181   1.945   1_655  S
O165        H188   0.968       .  S
C166        O183   1.292       .  A
C166        O175   1.275       .  A
O167       Ni186   1.924       .  S
O167        C173   1.274       .  A
O168       Ni186   1.933       .  S
O168        C170   1.275       .  A
Ni169       O172   1.971   1_455  S
Ni169       O174   1.955       .  S
C170        O180   1.296       .  A
O171       Ni187   1.988       .  S
O171        C177   1.292       .  A
O172        C177   1.288       .  A
O174        C176   1.280       .  A
O175       Ni186   1.922   1_455  S
C176        O182   1.275       .  A
H178        O179   0.966       .  S
O179       Ni187   1.942   1_465  S
O179       Ni181   1.919   1_565  S
O179       Ni186   1.912   1_455  S
O180       Ni181   2.006   1_665  S
Ni181       O185   1.964       .  S
Ni181       O183   1.979   1_545  S
O182       Ni187   1.960   1_455  S
C184        O185   1.289       .  A
C189        H190   1.108       .  S
C189        C195   1.554       .  S
C189        C194   1.542       .  S
C189        C193   1.534       .  S
C191        H192   1.109       .  S
C191        C197   1.549       .  S
C191        C196   1.549       .  S
C191        C198   1.539       .  S
C193        C196   1.379       .  D
C193       C2434   1.507       .  S
C194        C197   1.384       .  D
C194       C2274   1.497       .  S
C195        C198   1.387       .  D
C195       C2306   1.501       .  S
C196       C2245   1.513       .  S
C197       C2290   1.513       .  S
C198       C2258   1.501       .  S
C199        H200   1.108       .  S
C199        C205   1.551       .  S
C199        C204   1.537   1_455  S
C199        C203   1.540       .  S
C201        H202   1.108       .  S
C201        C207   1.538       .  S
C201        C206   1.521       .  S
C201        C208   1.536   1_655  S
C203        C206   1.370   1_455  D
C203       C2194   1.501       .  S
C204        C207   1.376       .  D
C204       C2405   1.497       .  S
C205        C208   1.389       .  D
C205       C2341   1.491       .  S
C206       C2181   1.484       .  S
C207       C2226   1.472       .  S
C208       C2210   1.515       .  S
C209        C210   1.537       .  S
C209        C215   1.531       .  S
C209        C213   1.577       .  S
C209       C2165   1.565       .  S
C210        C211   1.354       .  D
C210        H217   1.087       .  S
C211        C212   1.530       .  S
C211       C2213   1.487       .  S
C212        H218   1.108       .  S
C212        C216   1.554       .  S
C212        C214   1.578       .  S
C213        C214   1.399       .  D
C213        H219   1.084       .  S
C214        C294   1.549       .  S
C215        C216   1.353       .  D
C215        H220   1.080       .  S
C216       C3298   1.507       .  S
C221        C222   1.534       .  S
C221        C227   1.539       .  S
C221        C225   1.557       .  S
C221       C2869   1.546       .  S
C222        C223   1.352       .  D
C222        H229   1.088       .  S
C223        C224   1.535       .  S
C223       C3093   1.476       .  S
C224        H230   1.111       .  S
C224        C228   1.540       .  S
C224        C226   1.559       .  S
C225        C226   1.387       .  D
C225        H231   1.081       .  S
C226        C291   1.498       .  S
C227        C228   1.351       .  D
C227        H232   1.089       .  S
C228       C2741   1.492       .  S
C233        C234   1.556       .  S
C233        C239   1.520       .  S
C233        C237   1.520       .  S
C233       C2485   1.528       .  S
C234        C235   1.381       .  D
C234        H241   1.083       .  S
C235        C236   1.570       .  S
C235        C302   1.513       .  S
C236        H242   1.110       .  S
C236        C240   1.543       .  S
C236        C238   1.554       .  S
C237        C238   1.351       .  D
C237        H243   1.086       .  S
C238       C2146   1.482       .  S
C239        C240   1.352       .  D
C239        H244   1.088       .  S
C240       C2229   1.476       .  S
C245        C246   1.572       .  S
C245        C251   1.530       .  S
C245        C249   1.539       .  S
C245       C2773   1.568       .  S
C246        C247   1.393       .  D
C246        H253   1.085       .  S
C247        C248   1.568       .  S
C247        C288   1.542       .  S
C248        H254   1.109       .  S
C248        C252   1.550       .  S
C248        C250   1.538       .  S
C249        C250   1.353       .  D
C249        H255   1.076       .  S
C250       C2709   1.486       .  S
C251        C252   1.358       .  D
C251        H256   1.087       .  S
C252       C2309   1.493       .  S
C257        C258   1.542       .  S
C257        C263   1.529       .  S
C257        C261   1.547       .  S
C257       C2130   1.564       .  S
C258        C259   1.369       .  D
C258        H265   1.084       .  S
C259        C260   1.546       .  S
C259       C2277   1.483       .  S
C260        H266   1.110       .  S
C260        C264   1.545       .  S
C260        C262   1.562       .  S
C261        C262   1.385       .  D
C261        H267   1.086       .  S
C262        C284   1.521       .  S
C263        C264   1.348       .  D
C263        H268   1.086       .  S
C264       C2117   1.480       .  S
C269        C270   1.547       .  S
C269        C275   1.524       .  S
C269        C273   1.531       .  S
C269       C2098   1.562       .  S
C270        C271   1.390       .  D
C270        H277   1.080       .  S
C271        C272   1.589       .  S
C271        C295   1.539       .  S
C272        H278   1.101       .  S
C272        C276   1.566       .  S
C272        C274   1.564       .  S
C273        C274   1.368       .  D
C273        H279   1.086       .  S
C274       C3269   1.520       .  S
C275        C276   1.350       .  D
C275        H280   1.089       .  S
C276       C3109   1.514       .  S
O281       Ni287   1.960   1_655  S
O281        C302   1.282       .  A
O282       Ni305   1.958       .  S
O282        C291   1.285       .  A
O283       Ni287   1.899   1_655  S
O283       Ni305   1.924   1_655  S
O283       Ni299   1.944       .  S
O283        H306   0.964       .  S
C284        O301   1.298       .  A
C284        O293   1.279       .  A
O285       Ni304   1.924       .  S
O285        C291   1.271       .  A
O286       Ni304   1.938   1_655  S
O286        C288   1.274       .  A
Ni287       O290   1.954       .  S
Ni287       O292   1.940       .  S
C288        O298   1.290       .  A
O289       Ni305   1.994       .  S
O289        C295   1.294       .  A
O290        C295   1.286       .  A
O292        C294   1.277       .  A
O293       Ni304   1.927   1_655  S
C294        O300   1.295       .  A
H296        O297   0.964       .  S
O297       Ni305   1.941       .  S
O297       Ni299   1.913   1_455  S
O297       Ni304   1.908       .  S
O298       Ni299   2.004       .  S
Ni299       O303   1.955       .  S
Ni299       O301   1.996       .  S
O300       Ni305   2.014       .  S
C302        O303   1.285       .  A
C307        C308   1.523       .  S
C307        C313   1.538       .  S
C307        C311   1.552       .  S
C307       C2085   1.543       .  S
C308        C309   1.368       .  D
C308        H315   1.079       .  S
C309        C310   1.576       .  S
C309        C382   1.504       .  S
C310        H316   1.105       .  S
C310        C314   1.554       .  S
C310        C312   1.536       .  S
C311        C312   1.362       .  D
C311        H317   1.086       .  S
C312       C2789   1.497       .  S
C313        C314   1.359       .  D
C313        H318   1.083       .  S
C314       C3013   1.518       .  S
C319        C320   1.531       .  S
C319        C325   1.529       .  S
C319        C323   1.551       .  S
C319       C2066   1.546       .  S
C320        C321   1.356       .  D
C320        H327   1.088       .  S
C321        C322   1.555       .  S
C321       C3173   1.493       .  S
C322        H328   1.109       .  S
C322        C326   1.560       .  S
C322        C324   1.581       .  S
C323        C324   1.380       .  D
C323        H329   1.079       .  S
C324        C400   1.522       .  S
C325        C326   1.354       .  D
C325        H330   1.088       .  S
C326       C2818   1.512       .  S
C331        C332   1.546       .  S
C331        C337   1.518       .  S
C331        C335   1.518       .  S
C331       C2053   1.529       .  S
C332        C333   1.381       .  D
C332        H339   1.085       .  S
C333        C334   1.588       .  S
C333        C389   1.526       .  S
C334        H340   1.105       .  S
C334        C338   1.566       .  S
C334        C336   1.541       .  S
C335        C336   1.347       .  D
C335        H341   1.085       .  S
C336       C2018   1.466       .  S
C337        C338   1.362       .  D
C337        H342   1.085       .  S
C338       C2034   1.526       .  S
C343        C344   1.528       .  S
C343        C349   1.522       .  S
C343        C347   1.544       .  S
C343       C2002   1.520       .  S
C344        C345   1.346       .  D
C344        H351   1.084       .  S
C345        C346   1.558       .  S
C345       C1989   1.498       .  S
C346        H352   1.111       .  S
C346        C350   1.522       .  S
C346        C348   1.556       .  S
C347        C348   1.388       .  D
C347        H353   1.085       .  S
C348        C393   1.499       .  S
C349        C350   1.356       .  D
C349        H354   1.087       .  S
C350       C1973   1.455       .  S
C355        C356   1.568       .  S
C355        C361   1.509       .  S
C355        C359   1.527       .  S
C355       C1954   1.562       .  S
C356        C357   1.395       .  D
C356        H363   1.085       .  S
C357        C358   1.593       .  S
C357        C392   1.555       .  S
C358        H364   1.107       .  S
C358        C362   1.570       .  S
C358        C360   1.566       .  S
C359        C360   1.371       .  D
C359        H365   1.068       .  S
C360       C1938   1.532       .  S
C361        C362   1.342       .  D
C361        H366   1.090       .  S
C362       C3205   1.507       .  S
C367        C368   1.544       .  S
C367        C373   1.524       .  S
C367        C371   1.553       .  S
C367       C3061   1.558       .  S
C368        C369   1.363       .  D
C368        H375   1.081       .  S
C369        C370   1.547       .  S
C369       C2997   1.493       .  S
C370        H376   1.106       .  S
C370        C374   1.555       .  S
C370        C372   1.583       .  S
C371        C372   1.386       .  D
C371        H377   1.085       .  S
C372        C386   1.534       .  S
C373        C374   1.349       .  D
C373        H378   1.089       .  S
C374       C1925   1.518       .  S
O379       Ni385   1.952       .  S
O379        C400   1.280       .  A
O380       Ni403   1.962       .  S
O380        C389   1.285       .  A
O381       Ni385   1.899       .  S
O381       Ni403   1.921   1_554  S
O381       Ni397   1.924       .  S
O381        H404   0.968       .  S
C382        O399   1.286       .  A
C382        O391   1.284       .  A
O383       Ni402   1.966       .  S
O383        C389   1.282       .  A
O384       Ni402   1.940   1_554  S
O384        C386   1.275       .  A
Ni385       O388   1.943   1_554  S
Ni385       O390   1.949   1_554  S
C386        O396   1.291       .  A
O387       Ni403   1.945       .  S
O387        C393   1.282       .  A
O388        C393   1.283       .  A
O390        C392   1.277       .  A
O391       Ni402   1.945   1_554  S
C392        O398   1.299       .  A
H394        O395   0.968       .  S
O395       Ni403   1.926       .  S
O395       Ni397   1.932   1_556  S
O395       Ni402   1.916       .  S
O396       Ni397   1.993       .  S
Ni397       O401   1.967       .  S
Ni397       O399   1.957       .  S
O398       Ni403   2.018       .  S
C400        O401   1.287       .  A
C405        H406   1.091       .  S
C405        C411   1.545       .  S
C405        C410   1.536       .  S
C405        C409   1.519       .  S
C407        H408   1.104       .  S
C407        C413   1.565       .  S
C407        C412   1.564       .  S
C407        C414   1.535       .  S
C409        C412   1.380       .  D
C409       C2162   1.506       .  S
C410        C413   1.402       .  D
C410       C1890   1.503       .  S
C411        C414   1.379       .  D
C411       C1906   1.486       .  S
C412       C1874   1.518       .  S
C413       C2037   1.535       .  S
C414       C1986   1.512       .  S
C415        C416   1.546       .  S
C415        C421   1.532       .  S
C415        C419   1.531       .  S
C415       C2469   1.528       .  S
C416        C417   1.382       .  D
C416        H423   1.082       .  S
C417        C418   1.553       .  S
C417        C497   1.481       .  S
C418        H424   1.110       .  S
C418        C422   1.537       .  S
C418        C420   1.524       .  S
C419        C420   1.344       .  D
C419        H425   1.089       .  S
C420       C2805   1.462       .  S
C421        C422   1.352       .  D
C421        H426   1.088       .  S
C422       C1861   1.470       .  S
C427        C428   1.535       .  S
C427        C433   1.520       .  S
C427        C431   1.528       .  S
C427       C1842   1.538       .  S
C428        C429   1.373       .  D
C428        H435   1.080       .  S
C429        C430   1.562       .  S
C429        C490   1.494       .  S
C430        H436   1.106       .  S
C430        C434   1.569       .  S
C430        C432   1.550       .  S
C431        C432   1.368       .  D
C431        H437   1.074       .  S
C432       C1826   1.499       .  S
C433        C434   1.351       .  D
C433        H438   1.089       .  S
C434       C2293   1.504       .  S
C439        C440   1.570       .  S
C439        C445   1.506       .  S
C439        C443   1.515       .  S
C439       C1810   1.552       .  S
C440        C441   1.401       .  D
C440        H447   1.085       .  S
C441        C442   1.587       .  S
C441        C500   1.548       .  S
C442        H448   1.107       .  S
C442        C446   1.540       .  S
C442        C444   1.576       .  S
C443        C444   1.362       .  D
C443        H449   1.071       .  S
C444       C3285   1.534       .  S
C445        C446   1.342       .  D
C445        H450   1.091       .  S
C446       C1909   1.476       .  S
C451        C452   1.539       .  S
C451        C457   1.530       .  S
C451        C455   1.541       .  S
C451       C3045   1.545       .  S
C452        C453   1.364       .  D
C452        H459   1.078       .  S
C453        C454   1.543       .  S
C453       C1797   1.510       .  S
C454        H460   1.097       .  S
C454        C458   1.550       .  S
C454        C456   1.549       .  S
C455        C456   1.372       .  D
C455        H461   1.077       .  S
C456        C501   1.500       .  S
C457        C458   1.361       .  D
C457        H462   1.088       .  S
C458       C3317   1.497       .  S
C463        C464   1.549       .  S
C463        C469   1.521       .  S
C463        C467   1.545       .  S
C463       C2965   1.535       .  S
C464        C465   1.371       .  D
C464        H471   1.085       .  S
C465        C466   1.542       .  S
C465       C2261   1.486       .  S
C466        H472   1.110       .  S
C466        C470   1.547       .  S
C466        C468   1.574       .  S
C467        C468   1.373       .  D
C467        H473   1.086       .  S
C468        C494   1.523       .  S
C469        C470   1.348       .  D
C469        H474   1.088       .  S
C470       C2837   1.490       .  S
C475        C476   1.515       .  S
C475        C481   1.516       .  S
C475        C479   1.548       .  S
C475       C2853   1.520       .  S
C476        C477   1.340       .  D
C476        H483   1.089       .  S
C477        C478   1.547       .  S
C477       C1893   1.468       .  S
C478        H484   1.111       .  S
C478        C482   1.558       .  S
C478        C480   1.569       .  S
C479        C480   1.383       .  D
C479        H485   1.084       .  S
C480        C508   1.505       .  S
C481        C482   1.362       .  D
C481        H486   1.083       .  S
C482       C1778   1.500       .  S
O487       Ni493   1.950       .  S
O487        C508   1.283       .  A
O488       Ni511   1.938       .  S
O488        C497   1.277       .  A
O489       Ni493   1.897       .  S
O489       Ni511   1.907       .  S
O489       Ni505   1.930       .  S
O489        H512   0.968       .  S
C490        O507   1.289       .  A
C490        O499   1.278       .  A
O491       Ni510   1.919       .  S
O491        C497   1.270       .  A
O492       Ni510   1.928       .  S
O492        C494   1.270       .  A
Ni493       O496   1.932       .  S
Ni493       O498   1.955       .  S
C494        O504   1.290       .  A
O495       Ni511   1.961       .  S
O495        C501   1.289       .  A
O496        C501   1.281       .  A
O498        C500   1.280       .  A
O499       Ni510   1.922       .  S
C500        O506   1.291       .  A
H502        O503   0.967       .  S
O503       Ni511   1.943       .  S
O503       Ni505   1.913       .  S
O503       Ni510   1.914       .  S
O504       Ni505   1.987       .  S
Ni505       O509   1.945       .  S
Ni505       O507   1.966       .  S
O506       Ni511   1.999       .  S
C508        O509   1.284       .  A
C513        H514   1.108       .  S
C513        C519   1.527       .  S
C513        C518   1.535       .  S
C513        C517   1.557       .  S
C515        H516   1.109       .  S
C515        C521   1.527       .  S
C515        C520   1.560       .  S
C515        C522   1.516       .  S
C517        C520   1.410       .  D
C517       C1765   1.507       .  S
C518        C521   1.373       .  D
C518       C1746   1.506       .  S
C519        C522   1.353       .  D
C519       C1730   1.458       .  S
C520       C1941   1.527       .  S
C521       C1970   1.458       .  S
C522       C1813   1.493       .  S
C523        H524   1.108       .  S
C523        C529   1.535       .  S
C523        C528   1.541       .  S
C523        C527   1.544   1_545  S
C525        H526   1.111       .  S
C525        C531   1.554       .  S
C525        C530   1.554   1_545  S
C525        C532   1.548       .  S
C527        C530   1.381       .  D
C527       C1701   1.498       .  S
C528        C531   1.393       .  D
C528       C1666   1.528       .  S
C529        C532   1.368       .  D
C529       C1650   1.477   1_545  S
C530       C1682   1.514       .  S
C531       C1714   1.476       .  S
C532       C2389   1.504       .  S
C533        H534   1.108       .  S
C533        C539   1.545       .  S
C533        C538   1.529   1_556  S
C533        C537   1.530       .  S
C535        H536   1.083       .  S
C535        C541   1.562       .  S
C535        C540   1.551   1_554  S
C535        C542   1.546   1_554  S
C537        C540   1.365       .  D
C537       C2005   1.463       .  S
C538        C541   1.385       .  D
C538       C1589   1.517       .  S
C539        C542   1.407       .  D
C539       C1618   1.519       .  S
C540       C1570   1.535       .  S
C541       C1634   1.493       .  S
C542       C1605   1.524       .  S
C543        C544   1.568       .  S
C543        C549   1.532       .  S
C543        C547   1.547       .  S
C543       C1554   1.576       .  S
C544        C545   1.392       .  D
C544        H551   1.083       .  S
C545        C546   1.592       .  S
C545        C628   1.555       .  S
C546        H552   1.102       .  S
C546        C550   1.543       .  S
C546        C548   1.549       .  S
C547        C548   1.364       .  D
C547        H553   1.084       .  S
C548       C1749   1.519       .  S
C549        C550   1.350       .  D
C549        H554   1.089       .  S
C550       C1621   1.496       .  S
C555        C556   1.538       .  S
C555        C561   1.539       .  S
C555        C559   1.549       .  S
C555       C3157   1.547       .  S
C556        C557   1.355       .  D
C556        H563   1.087       .  S
C557        C558   1.533       .  S
C557       C1538   1.483       .  S
C558        H564   1.102       .  S
C558        C562   1.541       .  S
C558        C560   1.560       .  S
C559        C560   1.378       .  D
C559        H565   1.076       .  S
C560        C629   1.514       .  S
C561        C562   1.360       .  D
C561        H566   1.088       .  S
C562       C1762   1.487       .  S
C567        C568   1.522       .  S
C567        C573   1.519       .  S
C567        C571   1.544       .  S
C567       C1522   1.524       .  S
C568        C569   1.372       .  D
C568        H575   1.076       .  S
C569        C570   1.549       .  S
C569       C1586   1.514       .  S
C570        H576   1.104       .  S
C570        C574   1.547       .  S
C570        C572   1.563       .  S
C571        C572   1.375       .  D
C571        H577   1.085       .  S
C572        C636   1.494       .  S
C573        C574   1.342       .  D
C573        H578   1.087       .  S
C574       C1698   1.468       .  S
C579        C580   1.535       .  S
C579        C585   1.531       .  S
C579        C583   1.525       .  S
C579       C1509   1.542       .  S
C580        C581   1.376       .  D
C580        H587   1.086       .  S
C581        C582   1.566       .  S
C581        C618   1.513       .  S
C582        H588   1.104       .  S
C582        C586   1.552       .  S
C582        C584   1.556       .  S
C583        C584   1.365       .  D
C583        H589   1.081       .  S
C584       C1669   1.520       .  S
C585        C586   1.359       .  D
C585        H590   1.087       .  S
C586       C3029   1.474       .  S
C591        C592   1.543       .  S
C591        C597   1.520       .  S
C591        C595   1.524       .  S
C591       C1490   1.532       .  S
C592        C593   1.378       .  D
C592        H599   1.084       .  S
C593        C594   1.575       .  S
C593        C625   1.503       .  S
C594        H600   1.107       .  S
C594        C598   1.553       .  S
C594        C596   1.548       .  S
C595        C596   1.361       .  D
C595        H601   1.084       .  S
C596       C1474   1.488       .  S
C597        C598   1.353       .  D
C597        H602   1.089       .  S
C598       C1461   1.500       .  S
C603        C604   1.524       .  S
C603        C609   1.524       .  S
C603        C607   1.565       .  S
C603       C2578   1.549       .  S
C604        C605   1.357       .  D
C604        H611   1.081       .  S
C605        C606   1.557       .  S
C605       C2981   1.522       .  S
C606        H612   1.099       .  S
C606        C610   1.554       .  S
C606        C608   1.594       .  S
C607        C608   1.397       .  D
C607        H613   1.084       .  S
C608        C622   1.553       .  S
C609        C610   1.350       .  D
C609        H614   1.088       .  S
C610       C1442   1.511       .  S
O615       Ni621   1.932       .  S
O615        C636   1.274       .  A
O616       Ni639   1.945   1_545  S
O616        C625   1.284       .  A
O617       Ni621   1.903       .  S
O617       Ni639   1.912   1_554  S
O617       Ni633   1.943   1_565  S
O617        H640   0.965       .  S
C618        O635   1.293       .  A
C618        O627   1.283       .  A
O619       Ni638   1.951   1_556  S
O619        C625   1.281       .  A
O620       Ni638   1.941       .  S
O620        C622   1.275       .  A
Ni621       O624   1.941   1_554  S
Ni621       O626   1.938   1_554  S
C622        O632   1.297       .  A
O623       Ni639   1.971       .  S
O623        C629   1.289       .  A
O624        C629   1.283       .  A
O626        C628   1.273       .  A
O627       Ni638   1.941       .  S
C628        O634   1.299       .  A
H630        O631   0.966       .  S
O631       Ni639   1.937   1_545  S
O631       Ni633   1.912   1_556  S
O631       Ni638   1.900   1_556  S
O632       Ni633   2.019       .  S
Ni633       O637   1.951   1_545  S
Ni633       O635   1.977       .  S
O634       Ni639   2.024       .  S
C636        O637   1.284       .  A
C641        H642   1.105       .  S
C641        C647   1.531   1_655  S
C641        C646   1.532   1_655  S
C641        C645   1.550       .  S
C643        H644   1.112       .  S
C643        C649   1.547   1_655  S
C643        C648   1.546       .  S
C643        C650   1.539   1_655  S
C645        C648   1.400       .  D
C645       C1410   1.529       .  S
C646        C649   1.380       .  D
C646       C1378   1.475       .  S
C647        C650   1.364       .  D
C647       C2453   1.480   1_455  S
C648       C1394   1.481       .  S
C649       C1426   1.513       .  S
C650       C2101   1.498       .  S
C651        H652   1.099   1_554  S
C651        C657   1.519       .  S
C651        C656   1.540   1_554  S
C651        C655   1.542       .  S
C653        H654   1.110       .  S
C653        C659   1.531   1_554  S
C653        C658   1.559       .  S
C653        C660   1.529       .  S
C655        C658   1.413       .  D
C655       C1445   1.536       .  S
C656        C659   1.373       .  D
C656       C1477   1.482       .  S
C657        C660   1.360       .  D
C657       C2082   1.489       .  S
C658       C1346   1.489       .  S
C659       C1365   1.495       .  S
C660       C1330   1.494   1_554  S
C661        H662   1.083       .  S
C661        C667   1.542       .  S
C661        C666   1.521   1_545  S
C661        C665   1.545       .  S
C663        H664   1.108       .  S
C663        C669   1.534   1_545  S
C663        C668   1.555       .  S
C663        C670   1.534       .  S
C665        C668   1.406       .  D
C665       C2357   1.531       .  S
C666        C669   1.366       .  D
C666       C2325   1.490       .  S
C667        C670   1.376       .  D
C667       C1282   1.488       .  S
C668       C1301   1.507       .  S
C669       C1314   1.467       .  S
C670       C1557   1.523   1_545  S
C671        C672   1.578       .  S
C671        C677   1.516       .  S
C671        C675   1.525       .  S
C671       C1266   1.563       .  S
C672        C673   1.402       .  D
C672        H679   1.084       .  S
C673        C674   1.578       .  S
C673        C756   1.548       .  S
C674        H680   1.107       .  S
C674        C678   1.550       .  S
C674        C676   1.562       .  S
C675        C676   1.363       .  D
C675        H681   1.078       .  S
C676       C1298   1.522       .  S
C677        C678   1.348       .  D
C677        H682   1.089       .  S
C678       C1250   1.492       .  S
C683        C684   1.543       .  S
C683        C689   1.524       .  S
C683        C687   1.525       .  S
C683       C1653   1.514       .  S
C684        C685   1.372       .  D
C684        H691   1.083       .  S
C685        C686   1.570       .  S
C685        C753   1.500       .  S
C686        H692   1.110       .  S
C686        C690   1.542       .  S
C686        C688   1.549       .  S
C687        C688   1.346       .  D
C687        H693   1.081       .  S
C688       C1381   1.488       .  S
C689        C690   1.356       .  D
C689        H694   1.088       .  S
C690       C1637   1.479       .  S
C695        C696   1.543       .  S
C695        C701   1.523       .  S
C695        C699   1.552       .  S
C695       C2677   1.551       .  S
C696        C697   1.375       .  D
C696        H703   1.084       .  S
C697        C698   1.554       .  S
C697        C746   1.503       .  S
C698        H704   1.091       .  S
C698        C702   1.530       .  S
C698        C700   1.541       .  S
C699        C700   1.386       .  D
C699        H705   1.080       .  S
C700       C1349   1.542       .  S
C701        C702   1.348       .  D
C701        H706   1.084       .  S
C702       C2642   1.462       .  S
C707        C708   1.547       .  S
C707        C713   1.526       .  S
C707        C711   1.566       .  S
C707       C3141   1.575       .  S
C708        C709   1.367       .  D
C708        H715   1.086       .  S
C709        C710   1.524       .  S
C709       C2610   1.499       .  S
C710        H716   1.087       .  S
C710        C714   1.561       .  S
C710        C712   1.582       .  S
C711        C712   1.399       .  D
C711        H717   1.085       .  S
C712        C750   1.548       .  S
C713        C714   1.358       .  D
C713        H718   1.085       .  S
C714       C1413   1.544       .  S
C719        C720   1.530       .  S
C719        C725   1.533       .  S
C719        C723   1.537       .  S
C719       C2197   1.530       .  S
C720        C721   1.353       .  D
C720        H727   1.080       .  S
C721        C722   1.537       .  S
C721       C1602   1.470       .  S
C722        H728   1.111       .  S
C722        C726   1.531       .  S
C722        C724   1.537       .  S
C723        C724   1.374       .  D
C723        H729   1.086       .  S
C724        C757   1.481       .  S
C725        C726   1.364       .  D
C725        H730   1.086       .  S
C726       C1317   1.462       .  S
C731        C732   1.546       .  S
C731        C737   1.542       .  S
C731        C735   1.536       .  S
C731       C1234   1.547       .  S
C732        C733   1.359       .  D
C732        H739   1.081       .  S
C733        C734   1.543       .  S
C733       C1218   1.500       .  S
C734        H740   1.109       .  S
C734        C738   1.528       .  S
C734        C736   1.563       .  S
C735        C736   1.374       .  D
C735        H741   1.084       .  S
C736        C764   1.489       .  S
C737        C738   1.359       .  D
C737        H742   1.087       .  S
C738       C1362   1.484       .  S
O743       Ni749   1.936       .  S
O743        C764   1.275       .  A
O744       Ni767   1.940       .  S
O744        C753   1.282       .  A
O745       Ni749   1.891   1_565  S
O745       Ni767   1.907   1_656  S
O745       Ni761   1.910   1_566  S
O745        H768   0.965       .  S
C746        O763   1.283       .  A
C746        O755   1.283       .  A
O747       Ni766   1.952   1_565  S
O747        C753   1.279       .  A
O748       Ni766   1.945   1_665  S
O748        C750   1.277       .  A
Ni749       O752   1.928   1_645  S
Ni749       O754   1.935   1_655  S
C750        O760   1.290       .  A
O751       Ni767   1.940   1_556  S
O751        C757   1.283       .  A
O752        C757   1.281       .  A
O754        C756   1.274       .  A
O755       Ni766   1.948   1_655  S
C756        O762   1.294       .  A
H758        O759   0.966       .  S
O759       Ni767   1.917   1_545  S
O759       Ni761   1.918   1_455  S
O759       Ni766   1.899       .  S
O760       Ni761   2.002   1_565  S
Ni761       O765   1.938   1_554  S
Ni761       O763   1.946       .  S
O762       Ni767   2.016   1_546  S
C764        O765   1.279       .  A
C769        H770   1.094       .  S
C769        C775   1.553       .  S
C769        C774   1.542   1_554  S
C769        C773   1.571       .  S
C771        H772   1.110       .  S
C771        C777   1.556   1_554  S
C771        C776   1.522       .  S
C771        C778   1.526       .  S
C773        C776   1.389       .  D
C773       C1922   1.527       .  S
C774        C777   1.387       .  D
C774       C2021   1.514       .  S
C775        C778   1.372       .  D
C775       C1506   1.507       .  S
C776       C1189   1.484       .  S
C777       C1205   1.506       .  S
C778       C1269   1.506   1_554  S
C779        H780   1.093       .  S
C779        C785   1.526       .  S
C779        C784   1.546       .  S
C779        C783   1.537       .  S
C781        H782   1.111       .  S
C781        C787   1.560       .  S
C781        C786   1.533       .  S
C781        C788   1.533       .  S
C783        C786   1.374       .  D
C783       C2114   1.492       .  S
C784        C787   1.404       .  D
C784       C2149   1.523       .  S
C785        C788   1.361       .  D
C785       C1845   1.469       .  S
C786       C1157   1.476       .  S
C787       C1170   1.512       .  S
C788       C1957   1.506       .  S
C789        H790   1.113       .  S
C789        C795   1.540   1_655  S
C789        C794   1.547       .  S
C789        C793   1.547       .  S
C791        H792   1.092       .  S
C791        C797   1.522   1_455  S
C791        C796   1.558   1_455  S
C791        C798   1.567       .  S
C793        C796   1.387       .  D
C793       C2373   1.496   1_655  S
C794        C797   1.360       .  D
C794       C1221   1.481       .  S
C795        C798   1.404       .  D
C795       C1253   1.504       .  S
C796       C2133   1.548       .  S
C797       C1141   1.487       .  S
C798       C1122   1.532       .  S
C799        C800   1.554       .  S
C799        C805   1.531       .  S
C799        C803   1.544       .  S
C799       C1333   1.543       .  S
C800        C801   1.387       .  D
C800        H807   1.084   1_556  S
C801        C802   1.562       .  S
C801        C884   1.501       .  S
C802        H808   1.110       .  S
C802        C806   1.530       .  S
C802        C804   1.532       .  S
C803        C804   1.355       .  D
C803        H809   1.085       .  S
C804       C1154   1.478       .  S
C805        C806   1.342       .  D
C805        H810   1.089       .  S
C806       C1138   1.476       .  S
C811        C812   1.524       .  S
C811        C817   1.535       .  S
C811        C815   1.541       .  S
C811       C1877   1.548       .  S
C812        C813   1.351       .  D
C812        H819   1.084       .  S
C813        C814   1.561       .  S
C813       C1125   1.500       .  S
C814        H820   1.100       .  S
C814        C818   1.553       .  S
C814        C816   1.571       .  S
C815        C816   1.374       .  D
C815        H821   1.086       .  S
C816        C892   1.521       .  S
C817        C818   1.379       .  D
C817        H822   1.084       .  S
C818       C1202   1.508       .  S
C823        C824   1.534       .  S
C823        C829   1.529       .  S
C823        C827   1.539       .  S
C823       C2178   1.543       .  S
C824        C825   1.360       .  D
C824        H831   1.086       .  S
C825        C826   1.541       .  S
C825       C3189   1.466       .  S
C826        H832   1.109       .  S
C826        C830   1.551       .  S
C826        C828   1.554       .  S
C827        C828   1.372       .  D
C827        H833   1.080       .  S
C828        C885   1.494       .  S
C829        C830   1.361       .  D
C829        H834   1.088       .  S
C830       C1173   1.505       .  S
C835        C836   1.529       .  S
C835        C841   1.534       .  S
C835        C839   1.538       .  S
C835       C2658   1.526       .  S
C836        C837   1.369       .  D
C836        H843   1.087   1_455  S
C837        C838   1.560       .  S
C837        C874   1.498       .  S
C838        H844   1.108       .  S
C838        C842   1.552       .  S
C838        C840   1.534       .  S
C839        C840   1.360       .  D
C839        H845   1.076       .  S
C840       C1186   1.469       .  S
C841        C842   1.355       .  D
C841        H846   1.084       .  S
C842       C3122   1.497       .  S
C847        C848   1.548       .  S
C847        C853   1.531       .  S
C847        C851   1.536       .  S
C847       C2757   1.551       .  S
C848        C849   1.381       .  D
C848        H855   1.082       .  S
C849        C850   1.577       .  S
C849        C881   1.518       .  S
C850        H856   1.101       .  S
C850        C854   1.544       .  S
C850        C852   1.556       .  S
C851        C852   1.364       .  D
C851        H857   1.086       .  S
C852       C1397   1.516       .  S
C853        C854   1.354       .  D
C853        H858   1.088       .  S
C854       C3221   1.497       .  S
C859        C860   1.536       .  S
C859        C865   1.535       .  S
C859        C863   1.547       .  S
C859       C1573   1.535       .  S
C860        C861   1.355       .  D
C860        H867   1.085       .  S
C861        C862   1.541       .  S
C861       C3074   1.464       .  S
C862        H868   1.104       .  S
C862        C866   1.538       .  S
C862        C864   1.558       .  S
C863        C864   1.373       .  D
C863        H869   1.086   1_554  S
C864        C878   1.509       .  S
C865        C866   1.367       .  D
C865        H870   1.085       .  S
C866       C1429   1.505       .  S
O871       Ni877   1.936       .  S
O871        C892   1.271       .  A
O872       Ni895   1.969   1_554  S
O872        C881   1.285       .  A
O873       Ni877   1.910       .  S
O873       Ni895   1.932   1_455  S
O873       Ni889   1.930   1_556  S
O873        H896   0.967       .  S
C874        O891   1.292       .  A
C874        O883   1.279       .  A
O875       Ni894   1.945       .  S
O875        C881   1.275       .  A
O876       Ni894   1.919   1_455  S
O876        C878   1.272       .  A
Ni877       O880   1.927   1_455  S
Ni877       O882   1.914   1_455  S
C878        O888   1.285       .  A
O879       Ni895   1.959       .  S
O879        C885   1.287       .  A
O880        C885   1.277       .  A
O882        C884   1.271       .  A
O883       Ni894   1.928   1_455  S
C884        O890   1.282       .  A
H886        O887   0.963       .  S
O887       Ni895   1.924   1_554  S
O887       Ni889   1.929   1_655  S
O887       Ni894   1.906       .  S
O888       Ni889   1.972       .  S
Ni889       O893   1.982   1_554  S
Ni889       O891   1.967       .  S
O890       Ni895   1.964       .  S
C892        O893   1.290       .  A
C897        H898   1.112       .  S
C897        C903   1.530       .  S
C897        C902   1.553       .  S
C897        C901   1.514       .  S
C899        H900   1.090       .  S
C899        C905   1.544       .  S
C899        C904   1.531       .  S
C899        C906   1.549       .  S
C901        C904   1.356       .  D
C901       C2069   1.484       .  S
C902        C905   1.398       .  D
C902       C1794   1.490       .  S
C903        C906   1.384       .  D
C903       C1858   1.491       .  S
C904       C1525   1.472       .  S
C905       C1106   1.529       .  S
C906       C1090   1.496       .  S
C907        H908   1.103       .  S
C907        C913   1.522       .  S
C907        C912   1.547       .  S
C907        C911   1.536       .  S
C909        H910   1.094       .  S
C909        C915   1.539       .  S
C909        C914   1.548       .  S
C909        C916   1.513       .  S
C911        C914   1.398       .  D
C911       C1781   1.503       .  S
C912        C915   1.391       .  D
C912       C1829   1.517       .  S
C913        C916   1.347       .  D
C913       C2050   1.468       .  S
C914       C1061   1.510       .  S
C915       C1074   1.481       .  S
C916       C1493   1.469       .  S
C917        H918   1.110       .  S
C917        C923   1.549       .  S
C917        C922   1.534   1_545  S
C917        C921   1.530       .  S
C919        H920   1.108       .  S
C919        C925   1.554       .  S
C919        C924   1.529   1_565  S
C919        C926   1.543   1_565  S
C921        C924   1.369       .  D
C921       C1237   1.485       .  S
C922        C925   1.385       .  D
C922       C1541   1.508       .  S
C923        C926   1.385       .  D
C923       C1458   1.506       .  S
C924       C2421   1.504   1_545  S
C925       C1042   1.487       .  S
C926       C1026   1.494       .  S
C927        C928   1.506       .  S
C927        C933   1.536       .  S
C927        C931   1.527       .  S
C927       C1285   1.512       .  S
C928        C929   1.354       .  D
C928        H935   1.087       .  S
C929        C930   1.551       .  S
C929       C1013   1.478       .  S
C930        H936   1.100       .  S
C930        C934   1.560       .  S
C930        C932   1.541       .  S
C931        C932   1.350       .  D
C931        H937   1.086       .  S
C932       C1058   1.463       .  S
C933        C934   1.388       .  D
C933        H938   1.082       .  S
C934       C2917   1.521       .  S
C939        C940   1.544       .  S
C939        C945   1.527       .  S
C939        C943   1.519       .  S
C939       C1733   1.517       .  S
C940        C941   1.374       .  D
C940        H947   1.083       .  S
C941        C942   1.570       .  S
C941       C1020   1.495       .  S
C942        H948   1.110       .  S
C942        C946   1.544       .  S
C942        C944   1.547       .  S
C943        C944   1.350       .  D
C943        H949   1.085       .  S
C944       C2501   1.472       .  S
C945        C946   1.355       .  D
C945        H950   1.087       .  S
C946       C1045   1.489       .  S
C951        C952   1.544       .  S
C951        C957   1.536       .  S
C951        C955   1.548       .  S
C951       C2242   1.533       .  S
C952        C953   1.355       .  D
C952        H959   1.079       .  S
C953        C954   1.529       .  S
C953       C1029   1.475       .  S
C954        H960   1.111       .  S
C954        C958   1.534       .  S
C954        C956   1.552       .  S
C955        C956   1.376       .  D
C955        H961   1.085       .  S
C956       C1012   1.497       .  S
C957        C958   1.353       .  D
C957        H962   1.087       .  S
C958       C1077   1.467       .  S
C963        C964   1.526       .  S
C963        C969   1.531       .  S
C963        C967   1.552       .  S
C963       C3237   1.547       .  S
C964        C965   1.368       .  D
C964        H971   1.085       .  S
C965        C966   1.593       .  S
C965       C1006   1.517       .  S
C966        H972   1.099       .  S
C966        C970   1.565       .  S
C966        C968   1.551       .  S
C967        C968   1.371       .  D
C967        H973   1.083       .  S
C968       C1685   1.523       .  S
C969        C970   1.354       .  D
C969        H974   1.062       .  S
C970       C1109   1.539       .  S
C975        C976   1.529       .  S
C975        C981   1.504       .  S
C975        C979   1.529       .  S
C975       C2565   1.496       .  S
C976        C977   1.362       .  D
C976        H983   1.085       .  S
C977        C978   1.528       .  S
C977       C1093   1.471       .  S
C978        H984   1.109       .  S
C978        C982   1.542       .  S
C978        C980   1.541       .  S
C979        C980   1.370       .  D
C979        H985   1.083       .  S
C980       C1002   1.460       .  S
C981        C982   1.346       .  D
C981        H986   1.090       .  S
C982       C2549   1.459       .  S
C987        C988   1.528       .  S
C987        C993   1.522       .  S
C987        C991   1.537       .  S
C987       C2949   1.526       .  S
C988        C989   1.370       .  D
C988        H995   1.085       .  S
C989        C990   1.555       .  S
C989       C2885   1.518       .  S
C990        H996   1.097       .  S
C990        C994   1.531       .  S
C990        C992   1.562       .  S
C991        C992   1.380       .  D
C991        H997   1.085       .  S
C992       C1009   1.480       .  S
C993        C994   1.346       .  D
C993        H998   1.081       .  S
C994       C1717   1.481       .  S
O999      Ni1005   1.940       .  S
O999       C1020   1.272       .  A
O1000     Ni1023   1.929       .  S
O1000      C1009   1.275       .  A
O1001     Ni1005   1.900       .  S
O1001     Ni1023   1.914   1_565  S
O1001     Ni1017   1.907       .  S
O1001      H1024   0.966       .  S
C1002      O1019   1.278       .  A
C1002      O1011   1.279       .  A
O1003     Ni1022   1.932       .  S
O1003      C1009   1.274       .  A
O1004     Ni1022   1.923   1_565  S
O1004      C1006   1.269       .  A
Ni1005     O1008   1.919   1_565  S
Ni1005     O1010   1.911   1_565  S
C1006      O1016   1.291       .  A
O1007     Ni1023   1.933       .  S
O1007      C1013   1.279       .  A
O1008      C1013   1.281       .  A
O1010      C1012   1.267       .  A
O1011     Ni1022   1.906   1_565  S
C1012      O1018   1.278       .  A
H1014      O1015   0.962       .  S
O1015     Ni1023   1.903       .  S
O1015     Ni1017   1.904   1_545  S
O1015     Ni1022   1.887       .  S
O1016     Ni1017   1.983       .  S
Ni1017     O1021   1.945       .  S
Ni1017     O1019   1.921       .  S
O1018     Ni1023   1.960       .  S
C1020      O1021   1.282       .  A
C1025      C1026   1.409       .  A
C1025      C1030   1.394       .  A
C1025      H1032   1.072   1_545  S
C1026      C1027   1.411       .  A
C1027      C1034   1.505       .  S
C1027      C1028   1.408       .  A
C1028      C1029   1.408       .  A
C1028      H1033   1.084       .  S
C1029      C1030   1.403       .  A
C1030      C1031   1.508       .  S
C1031      H1035   1.111   1_545  S
C1031      H1036   1.110   1_545  S
C1031      H1037   1.107       .  S
C1034      H1038   1.110       .  S
C1034      H1039   1.106       .  S
C1034      H1040   1.111       .  S
C1041      C1042   1.403       .  A
C1041      C1046   1.400       .  A
C1041      H1048   1.081       .  S
C1042      C1043   1.414       .  A
C1043      C1050   1.510       .  S
C1043      C1044   1.402       .  A
C1044      C1045   1.404       .  A
C1044      H1049   1.082       .  S
C1045      C1046   1.419       .  A
C1046      C1047   1.510       .  S
C1047      H1051   1.111       .  S
C1047      H1052   1.108       .  S
C1047      H1053   1.109       .  S
C1050      H1054   1.108       .  S
C1050      H1055   1.110       .  S
C1050      H1056   1.104       .  S
C1057      C1058   1.392       .  A
C1057      C1062   1.388       .  A
C1057      H1064   1.087       .  S
C1058      C1059   1.417       .  A
C1059      C1066   1.504       .  S
C1059      C1060   1.402       .  A
C1060      C1061   1.406       .  A
C1060      H1065   1.080       .  S
C1061      C1062   1.425       .  A
C1062      C1063   1.507       .  S
C1063      H1067   1.112       .  S
C1063      H1068   1.111       .  S
C1063      H1069   1.100       .  S
C1066      H1070   1.110       .  S
C1066      H1071   1.104       .  S
C1066      H1072   1.110       .  S
C1073      C1074   1.409       .  A
C1073      C1078   1.390       .  A
C1073      H1080   1.073       .  S
C1074      C1075   1.406       .  A
C1075      C1082   1.503       .  S
C1075      C1076   1.408       .  A
C1076      C1077   1.410       .  A
C1076      H1081   1.083       .  S
C1077      C1078   1.399       .  A
C1078      C1079   1.510       .  S
C1079      H1083   1.110       .  S
C1079      H1084   1.109       .  S
C1079      H1085   1.110       .  S
C1082      H1086   1.110       .  S
C1082      H1087   1.110       .  S
C1082      H1088   1.111       .  S
C1089      C1090   1.405       .  A
C1089      C1094   1.379       .  A
C1089      H1096   1.073       .  S
C1090      C1091   1.423       .  A
C1091      C1098   1.500       .  S
C1091      C1092   1.402       .  A
C1092      C1093   1.402       .  A
C1092      H1097   1.083       .  S
C1093      C1094   1.406       .  A
C1094      C1095   1.512       .  S
C1095      H1099   1.111       .  S
C1095      H1100   1.111       .  S
C1095      H1101   1.108       .  S
C1098      H1102   1.110       .  S
C1098      H1103   1.095       .  S
C1098      H1104   1.111       .  S
C1105      C1106   1.392       .  A
C1105      C1110   1.417       .  A
C1105      H1112   1.077       .  S
C1106      C1107   1.415       .  A
C1107      C1114   1.507       .  S
C1107      C1108   1.405       .  A
C1108      C1109   1.409       .  A
C1108      H1113   1.076       .  S
C1109      C1110   1.449       .  A
C1110      C1111   1.510       .  S
C1111      H1115   1.111       .  S
C1111      H1116   1.110       .  S
C1111      H1117   1.110       .  S
C1114      H1118   1.110       .  S
C1114      H1119   1.110       .  S
C1114      H1120   1.111       .  S
C1121      C1122   1.411       .  A
C1121      C1126   1.397       .  A
C1121      H1128   1.084       .  S
C1122      C1123   1.422       .  A
C1123      C1130   1.499       .  S
C1123      C1124   1.420       .  A
C1124      C1125   1.410       .  A
C1124      H1129   1.078       .  S
C1125      C1126   1.412       .  A
C1126      C1127   1.509       .  S
C1127      H1131   1.108       .  S
C1127      H1132   1.110       .  S
C1127      H1133   1.107       .  S
C1130      H1134   1.108       .  S
C1130      H1135   1.107       .  S
C1130      H1136   1.111       .  S
C1137      C1138   1.390       .  A
C1137      C1142   1.396       .  A
C1137      H1144   1.086       .  S
C1138      C1139   1.422       .  A
C1139      C1146   1.504       .  S
C1139      C1140   1.403       .  A
C1140      C1141   1.397       .  A
C1140      H1145   1.085       .  S
C1141      C1142   1.422       .  A
C1142      C1143   1.499   1_655  S
C1143      H1147   1.111       .  S
C1143      H1148   1.104       .  S
C1143      H1149   1.096       .  S
C1146      H1150   1.110       .  S
C1146      H1151   1.099       .  S
C1146      H1152   1.111       .  S
C1153      C1154   1.411       .  A
C1153      C1158   1.396       .  A
C1153      H1160   1.081       .  S
C1154      C1155   1.406       .  A
C1155      C1162   1.508       .  S
C1155      C1156   1.397       .  A
C1156      C1157   1.405       .  A
C1156      H1161   1.073       .  S
C1157      C1158   1.404       .  A
C1158      C1159   1.507       .  S
C1159      H1163   1.110       .  S
C1159      H1164   1.111       .  S
C1159      H1165   1.107       .  S
C1162      H1166   1.105       .  S
C1162      H1167   1.108       .  S
C1162      H1168   1.110       .  S
C1169      C1170   1.408       .  A
C1169      C1174   1.407       .  A
C1169      H1176   1.086       .  S
C1170      C1171   1.426       .  A
C1171      C1178   1.500       .  S
C1171      C1172   1.400       .  A
C1172      C1173   1.402       .  A
C1172      H1177   1.086       .  S
C1173      C1174   1.420       .  A
C1174      C1175   1.501       .  S
C1175      H1179   1.111       .  S
C1175      H1180   1.110       .  S
C1175      H1181   1.091       .  S
C1178      H1182   1.086       .  S
C1178      H1183   1.111       .  S
C1178      H1184   1.111       .  S
C1185      C1186   1.411       .  A
C1185      C1190   1.404       .  A
C1185      H1192   1.085       .  S
C1186      C1187   1.395       .  A
C1187      C1194   1.510       .  S
C1187      C1188   1.391       .  A
C1188      C1189   1.412       .  A
C1188      H1193   1.070       .  S
C1189      C1190   1.408       .  A
C1190      C1191   1.505       .  S
C1191      H1195   1.110       .  S
C1191      H1196   1.110       .  S
C1191      H1197   1.108       .  S
C1194      H1198   1.108       .  S
C1194      H1199   1.110       .  S
C1194      H1200   1.108       .  S
C1201      C1202   1.408       .  A
C1201      C1206   1.401       .  A
C1201      H1208   1.084       .  S
C1202      C1203   1.420       .  A
C1203      C1210   1.515       .  S
C1203      C1204   1.404       .  A
C1204      C1205   1.407       .  A
C1204      H1209   1.084       .  S
C1205      C1206   1.427       .  A
C1206      C1207   1.507       .  S
C1207      H1211   1.100   1_556  S
C1207      H1212   1.109       .  S
C1207      H1213   1.112       .  S
C1210      H1214   1.111       .  S
C1210      H1215   1.094       .  S
C1210      H1216   1.105       .  S
C1217      C1218   1.404       .  A
C1217      C1222   1.406       .  A
C1217      H1224   1.081       .  S
C1218      C1219   1.429       .  A
C1219      C1226   1.508       .  S
C1219      C1220   1.392       .  A
C1220      C1221   1.391       .  A
C1220      H1225   1.086       .  S
C1221      C1222   1.416       .  A
C1222      C1223   1.505       .  S
C1223      H1227   1.111       .  S
C1223      H1228   1.109       .  S
C1223      H1229   1.095       .  S
C1226      H1230   1.105       .  S
C1226      H1231   1.110       .  S
C1226      H1232   1.111       .  S
C1233      C1234   1.418       .  A
C1233      C1238   1.396       .  A
C1233      H1240   1.070       .  S
C1234      C1235   1.425       .  A
C1235      C1242   1.507   1_545  S
C1235      C1236   1.409   1_545  A
C1236      C1237   1.403   1_565  A
C1236      H1241   1.084       .  S
C1237      C1238   1.405       .  A
C1238      C1239   1.512       .  S
C1239      H1243   1.111       .  S
C1239      H1244   1.105       .  S
C1239      H1245   1.110       .  S
C1242      H1246   1.109   1_565  S
C1242      H1247   1.108       .  S
C1242      H1248   1.111       .  S
C1249      C1250   1.401       .  A
C1249      C1254   1.410       .  A
C1249      H1256   1.078       .  S
C1250      C1251   1.414       .  A
C1251      C1258   1.508       .  S
C1251      C1252   1.404       .  A
C1252      C1253   1.401       .  A
C1252      H1257   1.067       .  S
C1253      C1254   1.417       .  A
C1254      C1255   1.492       .  S
C1255      H1259   1.110       .  S
C1255      H1260   1.097       .  S
C1255      H1261   1.110       .  S
C1258      H1262   1.110       .  S
C1258      H1263   1.109       .  S
C1258      H1264   1.105       .  S
C1265      C1266   1.411   1_554  A
C1265      C1270   1.426       .  A
C1265      H1272   1.082       .  S
C1266      C1267   1.450       .  A
C1267      C1274   1.520       .  S
C1267      C1268   1.401       .  A
C1268      C1269   1.386       .  A
C1268      H1273   1.086       .  S
C1269      C1270   1.420   1_556  A
C1270      C1271   1.503       .  S
C1271      H1275   1.110       .  S
C1271      H1276   1.110       .  S
C1271      H1277   1.109       .  S
C1274      H1278   1.100       .  S
C1274      H1279   1.111       .  S
C1274      H1280   1.111       .  S
C1281      C1282   1.402       .  A
C1281      C1286   1.389       .  A
C1281      H1288   1.079       .  S
C1282      C1283   1.418   1_545  A
C1283      C1290   1.504       .  S
C1283      C1284   1.395   1_565  A
C1284      C1285   1.400       .  A
C1284      H1289   1.084   1_545  S
C1285      C1286   1.418       .  A
C1286      C1287   1.510       .  S
C1287      H1291   1.111       .  S
C1287      H1292   1.110       .  S
C1287      H1293   1.108       .  S
C1290      H1294   1.104       .  S
C1290      H1295   1.110       .  S
C1290      H1296   1.110       .  S
C1297      C1298   1.407       .  A
C1297      C1302   1.413       .  A
C1297      H1304   1.080       .  S
C1298      C1299   1.425       .  A
C1299      C1306   1.510       .  S
C1299      C1300   1.404       .  A
C1300      C1301   1.404       .  A
C1300      H1305   1.085       .  S
C1301      C1302   1.426       .  A
C1302      C1303   1.500       .  S
C1303      H1307   1.110       .  S
C1303      H1308   1.098       .  S
C1303      H1309   1.103       .  S
C1306      H1310   1.109       .  S
C1306      H1311   1.111       .  S
C1306      H1312   1.112       .  S
C1313      C1314   1.404       .  A
C1313      C1318   1.391       .  A
C1313      H1320   1.078       .  S
C1314      C1315   1.410       .  A
C1315      C1322   1.509       .  S
C1315      C1316   1.387       .  A
C1316      C1317   1.401       .  A
C1316      H1321   1.082       .  S
C1317      C1318   1.411       .  A
C1318      C1319   1.513       .  S
C1319      H1323   1.107       .  S
C1319      H1324   1.108       .  S
C1319      H1325   1.111       .  S
C1322      H1326   1.110       .  S
C1322      H1327   1.103       .  S
C1322      H1328   1.105       .  S
C1329      C1330   1.404   1_554  A
C1329      C1334   1.416       .  A
C1329      H1336   1.074       .  S
C1330      C1331   1.405       .  A
C1331      C1338   1.513       .  S
C1331      C1332   1.388       .  A
C1332      C1333   1.420       .  A
C1332      H1337   1.076       .  S
C1333      C1334   1.425   1_556  A
C1334      C1335   1.505       .  S
C1335      H1339   1.111       .  S
C1335      H1340   1.109       .  S
C1335      H1341   1.110       .  S
C1338      H1342   1.109       .  S
C1338      H1343   1.103       .  S
C1338      H1344   1.111       .  S
C1345      C1346   1.400       .  A
C1345      C1350   1.421       .  A
C1345      H1352   1.082       .  S
C1346      C1347   1.405       .  A
C1347      C1354   1.502       .  S
C1347      C1348   1.390       .  A
C1348      C1349   1.407       .  A
C1348      H1353   1.065       .  S
C1349      C1350   1.437       .  A
C1350      C1351   1.502       .  S
C1351      H1355   1.106       .  S
C1351      H1356   1.106       .  S
C1351      H1357   1.111       .  S
C1354      H1358   1.095       .  S
C1354      H1359   1.105       .  S
C1354      H1360   1.110       .  S
C1361      C1362   1.406       .  A
C1361      C1366   1.407       .  A
C1361      H1368   1.079       .  S
C1362      C1363   1.407       .  A
C1363      C1370   1.510       .  S
C1363      C1364   1.399       .  A
C1364      C1365   1.406       .  A
C1364      H1369   1.074       .  S
C1365      C1366   1.413       .  A
C1366      C1367   1.509       .  S
C1367      H1371   1.111       .  S
C1367      H1372   1.107       .  S
C1367      H1373   1.110       .  S
C1370      H1374   1.111       .  S
C1370      H1375   1.107       .  S
C1370      H1376   1.111       .  S
C1377      C1378   1.391       .  A
C1377      C1382   1.401       .  A
C1377      H1384   1.084       .  S
C1378      C1379   1.420       .  A
C1379      C1386   1.497   1_455  S
C1379      C1380   1.391       .  A
C1380      C1381   1.390       .  A
C1380      H1385   1.085       .  S
C1381      C1382   1.434       .  A
C1382      C1383   1.510       .  S
C1383      H1387   1.111       .  S
C1383      H1388   1.105       .  S
C1383      H1389   1.099       .  S
C1386      H1390   1.100       .  S
C1386      H1391   1.102       .  S
C1386      H1392   1.110       .  S
C1393      C1394   1.402       .  A
C1393      C1398   1.407       .  A
C1393      H1400   1.071       .  S
C1394      C1395   1.404       .  A
C1395      C1402   1.508       .  S
C1395      C1396   1.400       .  A
C1396      C1397   1.421       .  A
C1396      H1401   1.079       .  S
C1397      C1398   1.416       .  A
C1398      C1399   1.505       .  S
C1399      H1403   1.110       .  S
C1399      H1404   1.107       .  S
C1399      H1405   1.110       .  S
C1402      H1406   1.109       .  S
C1402      H1407   1.110       .  S
C1402      H1408   1.110       .  S
C1409      C1410   1.409       .  A
C1409      C1414   1.412       .  A
C1409      H1416   1.081       .  S
C1410      C1411   1.403       .  A
C1411      C1418   1.499       .  S
C1411      C1412   1.405       .  A
C1412      C1413   1.428       .  A
C1412      H1417   1.077       .  S
C1413      C1414   1.428       .  A
C1414      C1415   1.501       .  S
C1415      H1419   1.111       .  S
C1415      H1420   1.105       .  S
C1415      H1421   1.110       .  S
C1418      H1422   1.106       .  S
C1418      H1423   1.105       .  S
C1418      H1424   1.111       .  S
C1425      C1426   1.409       .  A
C1425      C1430   1.410       .  A
C1425      H1432   1.083       .  S
C1426      C1427   1.424       .  A
C1427      C1434   1.495       .  S
C1427      C1428   1.396       .  A
C1428      C1429   1.399       .  A
C1428      H1433   1.084       .  S
C1429      C1430   1.420       .  A
C1430      C1431   1.504       .  S
C1431      H1435   1.111       .  S
C1431      H1436   1.099       .  S
C1431      H1437   1.108       .  S
C1434      H1438   1.104       .  S
C1434      H1439   1.090       .  S
C1434      H1440   1.111       .  S
C1441      C1442   1.419       .  A
C1441      C1446   1.406       .  A
C1441      H1448   1.075       .  S
C1442      C1443   1.400       .  A
C1443      C1450   1.509       .  S
C1443      C1444   1.403       .  A
C1444      C1445   1.430       .  A
C1444      H1449   1.067       .  S
C1445      C1446   1.411       .  A
C1446      C1447   1.501       .  S
C1447      H1451   1.111       .  S
C1447      H1452   1.100       .  S
C1447      H1453   1.110       .  S
C1450      H1454   1.108       .  S
C1450      H1455   1.107       .  S
C1450      H1456   1.111       .  S
C1457      C1458   1.407       .  A
C1457      C1462   1.405       .  A
C1457      H1464   1.086       .  S
C1458      C1459   1.424       .  A
C1459      C1466   1.499       .  S
C1459      C1460   1.404       .  A
C1460      C1461   1.406       .  A
C1460      H1465   1.085       .  S
C1461      C1462   1.418       .  A
C1462      C1463   1.500       .  S
C1463      H1467   1.111       .  S
C1463      H1468   1.096       .  S
C1463      H1469   1.109       .  S
C1466      H1470   1.111       .  S
C1466      H1471   1.099       .  S
C1466      H1472   1.107       .  S
C1473      C1474   1.408       .  A
C1473      C1478   1.395       .  A
C1473      H1480   1.072       .  S
C1474      C1475   1.402       .  A
C1475      C1482   1.503       .  S
C1475      C1476   1.404       .  A
C1476      C1477   1.411       .  A
C1476      H1481   1.081   1_556  S
C1477      C1478   1.398       .  A
C1478      C1479   1.505       .  S
C1479      H1483   1.111       .  S
C1479      H1484   1.110       .  S
C1479      H1485   1.108       .  S
C1482      H1486   1.109       .  S
C1482      H1487   1.107       .  S
C1482      H1488   1.111   1_556  S
C1489      C1490   1.408       .  A
C1489      C1494   1.407       .  A
C1489      H1496   1.080       .  S
C1490      C1491   1.440       .  A
C1491      C1498   1.512       .  S
C1491      C1492   1.387       .  A
C1492      C1493   1.380       .  A
C1492      H1497   1.086       .  S
C1493      C1494   1.415       .  A
C1494      C1495   1.505       .  S
C1495      H1499   1.110       .  S
C1495      H1500   1.110       .  S
C1495      H1501   1.106       .  S
C1498      H1502   1.104       .  S
C1498      H1503   1.105       .  S
C1498      H1504   1.111       .  S
C1505      C1506   1.405       .  A
C1505      C1510   1.399       .  A
C1505      H1512   1.076       .  S
C1506      C1507   1.423       .  A
C1507      C1514   1.503   1_554  S
C1507      C1508   1.406       .  A
C1508      C1509   1.404       .  A
C1508      H1513   1.084       .  S
C1509      C1510   1.418       .  A
C1510      C1511   1.508       .  S
C1511      H1515   1.111       .  S
C1511      H1516   1.111       .  S
C1511      H1517   1.110       .  S
C1514      H1518   1.106       .  S
C1514      H1519   1.109       .  S
C1514      H1520   1.111       .  S
C1521      C1522   1.408       .  A
C1521      C1526   1.403       .  A
C1521      H1528   1.081       .  S
C1522      C1523   1.438       .  A
C1523      C1530   1.519       .  S
C1523      C1524   1.389       .  A
C1524      C1525   1.388       .  A
C1524      H1529   1.085       .  S
C1525      C1526   1.410       .  A
C1526      C1527   1.502       .  S
C1527      H1531   1.111       .  S
C1527      H1532   1.110       .  S
C1527      H1533   1.103       .  S
C1530      H1534   1.107       .  S
C1530      H1535   1.111       .  S
C1530      H1536   1.107       .  S
C1537      C1538   1.414       .  A
C1537      C1542   1.414       .  A
C1537      H1544   1.084       .  S
C1538      C1539   1.397       .  A
C1539      C1546   1.509       .  S
C1539      C1540   1.394       .  A
C1540      C1541   1.408       .  A
C1540      H1545   1.062   1_565  S
C1541      C1542   1.413       .  A
C1542      C1543   1.505       .  S
C1543      H1547   1.111       .  S
C1543      H1548   1.109       .  S
C1543      H1549   1.107       .  S
C1546      H1550   1.107       .  S
C1546      H1551   1.110   1_565  S
C1546      H1552   1.109   1_565  S
C1553      C1554   1.424       .  A
C1553      C1558   1.404       .  A
C1553      H1560   1.077       .  S
C1554      C1555   1.428   1_565  A
C1555      C1562   1.504       .  S
C1555      C1556   1.429       .  A
C1556      C1557   1.412   1_545  A
C1556      H1561   1.082       .  S
C1557      C1558   1.413       .  A
C1558      C1559   1.512       .  S
C1559      H1563   1.111       .  S
C1559      H1564   1.110       .  S
C1559      H1565   1.102       .  S
C1562      H1566   1.108       .  S
C1562      H1567   1.110       .  S
C1562      H1568   1.111       .  S
C1569      C1570   1.407       .  A
C1569      C1574   1.405       .  A
C1569      H1576   1.078       .  S
C1570      C1571   1.420       .  A
C1571      C1578   1.505       .  S
C1571      C1572   1.404   1_556  A
C1572      C1573   1.406       .  A
C1572      H1577   1.083       .  S
C1573      C1574   1.420   1_554  A
C1574      C1575   1.506       .  S
C1575      H1579   1.110       .  S
C1575      H1580   1.110   1_556  S
C1575      H1581   1.108       .  S
C1578      H1582   1.106       .  S
C1578      H1583   1.106       .  S
C1578      H1584   1.112       .  S
C1585      C1586   1.405       .  A
C1585      C1590   1.389       .  A
C1585      H1592   1.082       .  S
C1586      C1587   1.428       .  A
C1587      C1594   1.505       .  S
C1587      C1588   1.413       .  A
C1588      C1589   1.408       .  A
C1588      H1593   1.070       .  S
C1589      C1590   1.413       .  A
C1590      C1591   1.505       .  S
C1591      H1595   1.111       .  S
C1591      H1596   1.111       .  S
C1591      H1597   1.101       .  S
C1594      H1598   1.108       .  S
C1594      H1599   1.097       .  S
C1594      H1600   1.111       .  S
C1601      C1602   1.381       .  A
C1601      C1606   1.395       .  A
C1601      H1608   1.087       .  S
C1602      C1603   1.418       .  A
C1603      C1610   1.506       .  S
C1603      C1604   1.406       .  A
C1604      C1605   1.405       .  A
C1604      H1609   1.076       .  S
C1605      C1606   1.444       .  A
C1606      C1607   1.512       .  S
C1607      H1611   1.112   1_556  S
C1607      H1612   1.089   1_556  S
C1607      H1613   1.105       .  S
C1610      H1614   1.106       .  S
C1610      H1615   1.106       .  S
C1610      H1616   1.110       .  S
C1617      C1618   1.416       .  A
C1617      C1622   1.405       .  A
C1617      H1624   1.068   1_556  S
C1618      C1619   1.420       .  A
C1619      C1626   1.505       .  S
C1619      C1620   1.416       .  A
C1620      C1621   1.410       .  A
C1620      H1625   1.083       .  S
C1621      C1622   1.399       .  A
C1622      C1623   1.506       .  S
C1623      H1627   1.108   1_556  S
C1623      H1628   1.110       .  S
C1623      H1629   1.111       .  S
C1626      H1630   1.110       .  S
C1626      H1631   1.108       .  S
C1626      H1632   1.110       .  S
C1633      C1634   1.411       .  A
C1633      C1638   1.391       .  A
C1633      H1640   1.064       .  S
C1634      C1635   1.404       .  A
C1635      C1642   1.504       .  S
C1635      C1636   1.408       .  A
C1636      C1637   1.411       .  A
C1636      H1641   1.070       .  S
C1637      C1638   1.399       .  A
C1638      C1639   1.510       .  S
C1639      H1643   1.111   1_554  S
C1639      H1644   1.109       .  S
C1639      H1645   1.110       .  S
C1642      H1646   1.110       .  S
C1642      H1647   1.110       .  S
C1642      H1648   1.111       .  S
C1649      C1650   1.387       .  A
C1649      C1654   1.386       .  A
C1649      H1656   1.087       .  S
C1650      C1651   1.422   1_565  A
C1651      C1658   1.496       .  S
C1651      C1652   1.396   1_545  A
C1652      C1653   1.397       .  A
C1652      H1657   1.080   1_565  S
C1653      C1654   1.436       .  A
C1654      C1655   1.514       .  S
C1655      H1659   1.111       .  S
C1655      H1660   1.111       .  S
C1655      H1661   1.094       .  S
C1658      H1662   1.091       .  S
C1658      H1663   1.108       .  S
C1658      H1664   1.111       .  S
C1665      C1666   1.414       .  A
C1665      C1670   1.425       .  A
C1665      H1672   1.071       .  S
C1666      C1667   1.410       .  A
C1667      C1674   1.492       .  S
C1667      C1668   1.388       .  A
C1668      C1669   1.405       .  A
C1668      H1673   1.083       .  S
C1669      C1670   1.427       .  A
C1670      C1671   1.502       .  S
C1671      H1675   1.111       .  S
C1671      H1676   1.100       .  S
C1671      H1677   1.106       .  S
C1674      H1678   1.109       .  S
C1674      H1679   1.095       .  S
C1674      H1680   1.111       .  S
C1681      C1682   1.412       .  A
C1681      C1686   1.422       .  A
C1681      H1688   1.080       .  S
C1682      C1683   1.410       .  A
C1683      C1690   1.502       .  S
C1683      C1684   1.403       .  A
C1684      C1685   1.413       .  A
C1684      H1689   1.083       .  S
C1685      C1686   1.419       .  A
C1686      C1687   1.506       .  S
C1687      H1691   1.101       .  S
C1687      H1692   1.101       .  S
C1687      H1693   1.110       .  S
C1690      H1694   1.111       .  S
C1690      H1695   1.105       .  S
C1690      H1696   1.110       .  S
C1697      C1698   1.377       .  A
C1697      C1702   1.387       .  A
C1697      H1704   1.086       .  S
C1698      C1699   1.418       .  A
C1699      C1706   1.508       .  S
C1699      C1700   1.409       .  A
C1700      C1701   1.404       .  A
C1700      H1705   1.084       .  S
C1701      C1702   1.427       .  A
C1702      C1703   1.488   1_565  S
C1703      H1707   1.093       .  S
C1703      H1708   1.094       .  S
C1703      H1709   1.112       .  S
C1706      H1710   1.107       .  S
C1706      H1711   1.110       .  S
C1706      H1712   1.111       .  S
C1713      C1714   1.395       .  A
C1713      C1718   1.384       .  A
C1713      H1720   1.068       .  S
C1714      C1715   1.409       .  A
C1715      C1722   1.506       .  S
C1715      C1716   1.402       .  A
C1716      C1717   1.408       .  A
C1716      H1721   1.073       .  S
C1717      C1718   1.413       .  A
C1718      C1719   1.511       .  S
C1719      H1723   1.109       .  S
C1719      H1724   1.110       .  S
C1719      H1725   1.106       .  S
C1722      H1726   1.106       .  S
C1722      H1727   1.110       .  S
C1722      H1728   1.111       .  S
C1729      C1730   1.382       .  A
C1729      C1734   1.378       .  A
C1729      H1736   1.084       .  S
C1730      C1731   1.403       .  A
C1731      C1738   1.503       .  S
C1731      C1732   1.404       .  A
C1732      C1733   1.411       .  A
C1732      H1737   1.079       .  S
C1733      C1734   1.437       .  A
C1734      C1735   1.517       .  S
C1735      H1739   1.104       .  S
C1735      H1740   1.111       .  S
C1735      H1741   1.103       .  S
C1738      H1742   1.109       .  S
C1738      H1743   1.108       .  S
C1738      H1744   1.111       .  S
C1745      C1746   1.411       .  A
C1745      C1750   1.410       .  A
C1745      H1752   1.071       .  S
C1746      C1747   1.407       .  A
C1747      C1754   1.506       .  S
C1747      C1748   1.407       .  A
C1748      C1749   1.419       .  A
C1748      H1753   1.083       .  S
C1749      C1750   1.413       .  A
C1750      C1751   1.505       .  S
C1751      H1755   1.111       .  S
C1751      H1756   1.109       .  S
C1751      H1757   1.106       .  S
C1754      H1758   1.110       .  S
C1754      H1759   1.110       .  S
C1754      H1760   1.111       .  S
C1761      C1762   1.416       .  A
C1761      C1766   1.411       .  A
C1761      H1768   1.084       .  S
C1762      C1763   1.400       .  A
C1763      C1770   1.509       .  S
C1763      C1764   1.391       .  A
C1764      C1765   1.416       .  A
C1764      H1769   1.070       .  S
C1765      C1766   1.410       .  A
C1766      C1767   1.505       .  S
C1767      H1771   1.111       .  S
C1767      H1772   1.107       .  S
C1767      H1773   1.110       .  S
C1770      H1774   1.107       .  S
C1770      H1775   1.108       .  S
C1770      H1776   1.109       .  S
C1777      C1778   1.405       .  A
C1777      C1782   1.405       .  A
C1777      H1784   1.083       .  S
C1778      C1779   1.423       .  A
C1779      C1786   1.515       .  S
C1779      C1780   1.403       .  A
C1780      C1781   1.405       .  A
C1780      H1785   1.077       .  S
C1781      C1782   1.418       .  A
C1782      C1783   1.509       .  S
C1783      H1787   1.105       .  S
C1783      H1788   1.110       .  S
C1783      H1789   1.106       .  S
C1786      H1790   1.108       .  S
C1786      H1791   1.111       .  S
C1786      H1792   1.099       .  S
C1793      C1794   1.407       .  A
C1793      C1798   1.402       .  A
C1793      H1800   1.084       .  S
C1794      C1795   1.422       .  A
C1795      C1802   1.508       .  S
C1795      C1796   1.396       .  A
C1796      C1797   1.408       .  A
C1796      H1801   1.073       .  S
C1797      C1798   1.418       .  A
C1798      C1799   1.509       .  S
C1799      H1803   1.112       .  S
C1799      H1804   1.110       .  S
C1799      H1805   1.109       .  S
C1802      H1806   1.105       .  S
C1802      H1807   1.101       .  S
C1802      H1808   1.106       .  S
C1809      C1810   1.409       .  A
C1809      C1814   1.421       .  A
C1809      H1816   1.083       .  S
C1810      C1811   1.452       .  A
C1811      C1818   1.528       .  S
C1811      C1812   1.390       .  A
C1812      C1813   1.382       .  A
C1812      H1817   1.086       .  S
C1813      C1814   1.420       .  A
C1814      C1815   1.502       .  S
C1815      H1819   1.111       .  S
C1815      H1820   1.110       .  S
C1815      H1821   1.106       .  S
C1818      H1822   1.103       .  S
C1818      H1823   1.104       .  S
C1818      H1824   1.111       .  S
C1825      C1826   1.400       .  A
C1825      C1830   1.413       .  A
C1825      H1832   1.080       .  S
C1826      C1827   1.405       .  A
C1827      C1834   1.509       .  S
C1827      C1828   1.385       .  A
C1828      C1829   1.409       .  A
C1828      H1833   1.079       .  S
C1829      C1830   1.431       .  A
C1830      C1831   1.494       .  S
C1831      H1835   1.102       .  S
C1831      H1836   1.111       .  S
C1831      H1837   1.096       .  S
C1834      H1838   1.111       .  S
C1834      H1839   1.111       .  S
C1834      H1840   1.111       .  S
C1841      C1842   1.421       .  A
C1841      C1846   1.388       .  A
C1841      H1848   1.081       .  S
C1842      C1843   1.425       .  A
C1843      C1850   1.506       .  S
C1843      C1844   1.405       .  A
C1844      C1845   1.400       .  A
C1844      H1849   1.085       .  S
C1845      C1846   1.401       .  A
C1846      C1847   1.511       .  S
C1847      H1851   1.110       .  S
C1847      H1852   1.102       .  S
C1847      H1853   1.111       .  S
C1850      H1854   1.108       .  S
C1850      H1855   1.110       .  S
C1850      H1856   1.111       .  S
C1857      C1858   1.405       .  A
C1857      C1862   1.383       .  A
C1857      H1864   1.062       .  S
C1858      C1859   1.412       .  A
C1859      C1866   1.505       .  S
C1859      C1860   1.407       .  A
C1860      C1861   1.414       .  A
C1860      H1865   1.084       .  S
C1861      C1862   1.398       .  A
C1862      C1863   1.513       .  S
C1863      H1867   1.108       .  S
C1863      H1868   1.106       .  S
C1863      H1869   1.110       .  S
C1866      H1870   1.111       .  S
C1866      H1871   1.106       .  S
C1866      H1872   1.111       .  S
C1873      C1874   1.407       .  A
C1873      C1878   1.402       .  A
C1873      H1880   1.077       .  S
C1874      C1875   1.425       .  A
C1875      C1882   1.500       .  S
C1875      C1876   1.408       .  A
C1876      C1877   1.404       .  A
C1876      H1881   1.084       .  S
C1877      C1878   1.422       .  A
C1878      C1879   1.508       .  S
C1879      H1883   1.111       .  S
C1879      H1884   1.109       .  S
C1879      H1885   1.110       .  S
C1882      H1886   1.100       .  S
C1882      H1887   1.110       .  S
C1882      H1888   1.111       .  S
C1889      C1890   1.398       .  A
C1889      C1894   1.399       .  A
C1889      H1896   1.084       .  S
C1890      C1891   1.432       .  A
C1891      C1898   1.507       .  S
C1891      C1892   1.396       .  A
C1892      C1893   1.389       .  A
C1892      H1897   1.086       .  S
C1893      C1894   1.423       .  A
C1894      C1895   1.499       .  S
C1895      H1899   1.108       .  S
C1895      H1900   1.098       .  S
C1895      H1901   1.109       .  S
C1898      H1902   1.095       .  S
C1898      H1903   1.111       .  S
C1898      H1904   1.111       .  S
C1905      C1906   1.401       .  A
C1905      C1910   1.408       .  A
C1905      H1912   1.085       .  S
C1906      C1907   1.412       .  A
C1907      C1914   1.485       .  S
C1907      C1908   1.392       .  A
C1908      C1909   1.397       .  A
C1908      H1913   1.086       .  S
C1909      C1910   1.419       .  A
C1910      C1911   1.497       .  S
C1911      H1915   1.109       .  S
C1911      H1916   1.106       .  S
C1911      H1917   1.108       .  S
C1914      H1918   1.111       .  S
C1914      H1919   1.085       .  S
C1914      H1920   1.108       .  S
C1921      C1922   1.412       .  A
C1921      C1926   1.419       .  A
C1921      H1928   1.084       .  S
C1922      C1923   1.430       .  A
C1923      C1930   1.496       .  S
C1923      C1924   1.403       .  A
C1924      C1925   1.405       .  A
C1924      H1929   1.084       .  S
C1925      C1926   1.422       .  A
C1926      C1927   1.497       .  S
C1927      H1931   1.110       .  S
C1927      H1932   1.099       .  S
C1927      H1933   1.106       .  S
C1930      H1934   1.096       .  S
C1930      H1935   1.107       .  S
C1930      H1936   1.111       .  S
C1937      C1938   1.412       .  A
C1937      C1942   1.424       .  A
C1937      H1944   1.080       .  S
C1938      C1939   1.419       .  A
C1939      C1946   1.510       .  S
C1939      C1940   1.401       .  A
C1940      C1941   1.408       .  A
C1940      H1945   1.082       .  S
C1941      C1942   1.427       .  A
C1942      C1943   1.506       .  S
C1943      H1947   1.109       .  S
C1943      H1948   1.102       .  S
C1943      H1949   1.103       .  S
C1946      H1950   1.110       .  S
C1946      H1951   1.111       .  S
C1946      H1952   1.111       .  S
C1953      C1954   1.415       .  A
C1953      C1958   1.422       .  A
C1953      H1960   1.083       .  S
C1954      C1955   1.449       .  A
C1955      C1962   1.520       .  S
C1955      C1956   1.402       .  A
C1956      C1957   1.389       .  A
C1956      H1961   1.085       .  S
C1957      C1958   1.419       .  A
C1958      C1959   1.503       .  S
C1959      H1963   1.110       .  S
C1959      H1964   1.106       .  S
C1959      H1965   1.110       .  S
C1962      H1966   1.111       .  S
C1962      H1967   1.107       .  S
C1962      H1968   1.107       .  S
C1969      C1970   1.399       .  A
C1969      C1974   1.384       .  A
C1969      H1976   1.062       .  S
C1970      C1971   1.405       .  A
C1971      C1978   1.508       .  S
C1971      C1972   1.393       .  A
C1972      C1973   1.402       .  A
C1972      H1977   1.075       .  S
C1973      C1974   1.400       .  A
C1974      C1975   1.513       .  S
C1975      H1979   1.107       .  S
C1975      H1980   1.106       .  S
C1975      H1981   1.110       .  S
C1978      H1982   1.107       .  S
C1978      H1983   1.110       .  S
C1978      H1984   1.111       .  S
C1985      C1986   1.396       .  A
C1985      C1990   1.413       .  A
C1985      H1992   1.084       .  S
C1986      C1987   1.423       .  A
C1987      C1994   1.471       .  S
C1987      C1988   1.389       .  A
C1988      C1989   1.379       .  A
C1988      H1993   1.086       .  S
C1989      C1990   1.435       .  A
C1990      C1991   1.501       .  S
C1991      H1995   1.104       .  S
C1991      H1996   1.103       .  S
C1991      H1997   1.111       .  S
C1994      H1998   1.111       .  S
C1994      H1999   1.072       .  S
C1994      H2000   1.102       .  S
C2001      C2002   1.409       .  A
C2001      C2006   1.412   1_556  A
C2001      H2008   1.082   1_556  S
C2002      C2003   1.438       .  A
C2003      C2010   1.516       .  S
C2003      C2004   1.374       .  A
C2004      C2005   1.378       .  A
C2004      H2009   1.082       .  S
C2005      C2006   1.417   1_556  A
C2006      C2007   1.506       .  S
C2007      H2011   1.110       .  S
C2007      H2012   1.110       .  S
C2007      H2013   1.109       .  S
C2010      H2014   1.092       .  S
C2010      H2015   1.111       .  S
C2010      H2016   1.111       .  S
C2017      C2018   1.376       .  A
C2017      C2022   1.391       .  A
C2017      H2024   1.086       .  S
C2018      C2019   1.420       .  A
C2019      C2026   1.503       .  S
C2019      C2020   1.401       .  A
C2020      C2021   1.402       .  A
C2020      H2025   1.084       .  S
C2021      C2022   1.432       .  A
C2022      C2023   1.478   1_556  S
C2023      H2027   1.112       .  S
C2023      H2028   1.084       .  S
C2023      H2029   1.104       .  S
C2026      H2030   1.110       .  S
C2026      H2031   1.101       .  S
C2026      H2032   1.111       .  S
C2033      C2034   1.409       .  A
C2033      C2038   1.403       .  A
C2033      H2040   1.083       .  S
C2034      C2035   1.421       .  A
C2035      C2042   1.505       .  S
C2035      C2036   1.415       .  A
C2036      C2037   1.414       .  A
C2036      H2041   1.085       .  S
C2037      C2038   1.438       .  A
C2038      C2039   1.508       .  S
C2039      H2043   1.112       .  S
C2039      H2044   1.081       .  S
C2039      H2045   1.110       .  S
C2042      H2046   1.109       .  S
C2042      H2047   1.095       .  S
C2042      H2048   1.111       .  S
C2049      C2050   1.379       .  A
C2049      C2054   1.381       .  A
C2049      H2056   1.082       .  S
C2050      C2051   1.408       .  A
C2051      C2058   1.504       .  S
C2051      C2052   1.411       .  A
C2052      C2053   1.411       .  A
C2052      H2057   1.081       .  S
C2053      C2054   1.440       .  A
C2054      C2055   1.517       .  S
C2055      H2059   1.104       .  S
C2055      H2060   1.111       .  S
C2055      H2061   1.101       .  S
C2058      H2062   1.106       .  S
C2058      H2063   1.108       .  S
C2058      H2064   1.111       .  S
C2065      C2066   1.418       .  A
C2065      C2070   1.388       .  A
C2065      H2072   1.084       .  S
C2066      C2067   1.423       .  A
C2067      C2074   1.500       .  S
C2067      C2068   1.416       .  A
C2068      C2069   1.405       .  A
C2068      H2073   1.082       .  S
C2069      C2070   1.400       .  A
C2070      C2071   1.506       .  S
C2071      H2075   1.111       .  S
C2071      H2076   1.108       .  S
C2071      H2077   1.101       .  S
C2074      H2078   1.109       .  S
C2074      H2079   1.110       .  S
C2074      H2080   1.111       .  S
C2081      C2082   1.403   1_556  A
C2081      C2086   1.415   1_556  A
C2081      H2088   1.084       .  S
C2082      C2083   1.405       .  A
C2083      C2090   1.503       .  S
C2083      C2084   1.385       .  A
C2084      C2085   1.411       .  A
C2084      H2089   1.080       .  S
C2085      C2086   1.428       .  A
C2086      C2087   1.502   1_554  S
C2087      H2091   1.109       .  S
C2087      H2092   1.109       .  S
C2087      H2093   1.111       .  S
C2090      H2094   1.102       .  S
C2090      H2095   1.107       .  S
C2090      H2096   1.111       .  S
C2097      C2098   1.419       .  A
C2097      C2102   1.395       .  A
C2097      H2104   1.085       .  S
C2098      C2099   1.424       .  A
C2099      C2106   1.500   1_455  S
C2099      C2100   1.426   1_455  A
C2100      C2101   1.410   1_655  A
C2100      H2105   1.084       .  S
C2101      C2102   1.407       .  A
C2102      C2103   1.510       .  S
C2103      H2107   1.110       .  S
C2103      H2108   1.104       .  S
C2103      H2109   1.110       .  S
C2106      H2110   1.110       .  S
C2106      H2111   1.110       .  S
C2106      H2112   1.111       .  S
C2113      C2114   1.400       .  A
C2113      C2118   1.398       .  A
C2113      H2120   1.074       .  S
C2114      C2115   1.417       .  A
C2115      C2122   1.505       .  S
C2115      C2116   1.413       .  A
C2116      C2117   1.408       .  A
C2116      H2121   1.083       .  S
C2117      C2118   1.412       .  A
C2118      C2119   1.511       .  S
C2119      H2123   1.107       .  S
C2119      H2124   1.108       .  S
C2119      H2125   1.110       .  S
C2122      H2126   1.111       .  S
C2122      H2127   1.109       .  S
C2122      H2128   1.110       .  S
C2129      C2130   1.408       .  A
C2129      C2134   1.403       .  A
C2129      H2136   1.084       .  S
C2130      C2131   1.416       .  A
C2131      C2138   1.506       .  S
C2131      C2132   1.418       .  A
C2132      C2133   1.424       .  A
C2132      H2137   1.068       .  S
C2133      C2134   1.425       .  A
C2134      C2135   1.509       .  S
C2135      H2139   1.111       .  S
C2135      H2140   1.107       .  S
C2135      H2141   1.103       .  S
C2138      H2142   1.109       .  S
C2138      H2143   1.110       .  S
C2138      H2144   1.111   1_655  S
C2145      C2146   1.386       .  A
C2145      C2150   1.400       .  A
C2145      H2152   1.086       .  S
C2146      C2147   1.422       .  A
C2147      C2154   1.502       .  S
C2147      C2148   1.405       .  A
C2148      C2149   1.403       .  A
C2148      H2153   1.084       .  S
C2149      C2150   1.436       .  A
C2150      C2151   1.500       .  S
C2151      H2155   1.111       .  S
C2151      H2156   1.110       .  S
C2151      H2157   1.083       .  S
C2154      H2158   1.110       .  S
C2154      H2159   1.101       .  S
C2154      H2160   1.108       .  S
C2161      C2162   1.383       .  A
C2161      C2166   1.401       .  A
C2161      H2168   1.086       .  S
C2162      C2163   1.424       .  A
C2163      C2170   1.504       .  S
C2163      C2164   1.424       .  A
C2164      C2165   1.410       .  A
C2164      H2169   1.082       .  S
C2165      C2166   1.449       .  A
C2166      C2167   1.510       .  S
C2167      H2171   1.112       .  S
C2167      H2172   1.110       .  S
C2167      H2173   1.088       .  S
C2170      H2174   1.108       .  S
C2170      H2175   1.110       .  S
C2170      H2176   1.110       .  S
C2177      C2178   1.420       .  A
C2177      C2182   1.396       .  A
C2177      H2184   1.080       .  S
C2178      C2179   1.427       .  A
C2179      C2186   1.506   1_655  S
C2179      C2180   1.406   1_655  A
C2180      C2181   1.399   1_455  A
C2180      H2185   1.085       .  S
C2181      C2182   1.407       .  A
C2182      C2183   1.510       .  S
C2183      H2187   1.111       .  S
C2183      H2188   1.103       .  S
C2183      H2189   1.111       .  S
C2186      H2190   1.109   1_455  S
C2186      H2191   1.108       .  S
C2186      H2192   1.111       .  S
C2193      C2194   1.407       .  A
C2193      C2198   1.395       .  A
C2193      H2200   1.080       .  S
C2194      C2195   1.422   1_455  A
C2195      C2202   1.502       .  S
C2195      C2196   1.401   1_655  A
C2196      C2197   1.405       .  A
C2196      H2201   1.085       .  S
C2197      C2198   1.413       .  A
C2198      C2199   1.507       .  S
C2199      H2203   1.111       .  S
C2199      H2204   1.110       .  S
C2199      H2205   1.111       .  S
C2202      H2206   1.098       .  S
C2202      H2207   1.110       .  S
C2202      H2208   1.111       .  S
C2209      C2210   1.417       .  A
C2209      C2214   1.401       .  A
C2209      H2216   1.070   1_455  S
C2210      C2211   1.416       .  A
C2211      C2218   1.507       .  S
C2211      C2212   1.410       .  A
C2212      C2213   1.407       .  A
C2212      H2217   1.076       .  S
C2213      C2214   1.396       .  A
C2214      C2215   1.507       .  S
C2215      H2219   1.107   1_455  S
C2215      H2220   1.110       .  S
C2215      H2221   1.110       .  S
C2218      H2222   1.111       .  S
C2218      H2223   1.106       .  S
C2218      H2224   1.110       .  S
C2225      C2226   1.403       .  A
C2225      C2230   1.397       .  A
C2225      H2232   1.083       .  S
C2226      C2227   1.413       .  A
C2227      C2234   1.511       .  S
C2227      C2228   1.401       .  A
C2228      C2229   1.400       .  A
C2228      H2233   1.081       .  S
C2229      C2230   1.415       .  A
C2230      C2231   1.507       .  S
C2231      H2235   1.111   1_655  S
C2231      H2236   1.110       .  S
C2231      H2237   1.109       .  S
C2234      H2238   1.110       .  S
C2234      H2239   1.108       .  S
C2234      H2240   1.105       .  S
C2241      C2242   1.405       .  A
C2241      C2246   1.407       .  A
C2241      H2248   1.085       .  S
C2242      C2243   1.409       .  A
C2243      C2250   1.506       .  S
C2243      C2244   1.394       .  A
C2244      C2245   1.409       .  A
C2244      H2249   1.078       .  S
C2245      C2246   1.428       .  A
C2246      C2247   1.502       .  S
C2247      H2251   1.111       .  S
C2247      H2252   1.097       .  S
C2247      H2253   1.110       .  S
C2250      H2254   1.111       .  S
C2250      H2255   1.111       .  S
C2250      H2256   1.110       .  S
C2257      C2258   1.406       .  A
C2257      C2262   1.400       .  A
C2257      H2264   1.070       .  S
C2258      C2259   1.413       .  A
C2259      C2266   1.505       .  S
C2259      C2260   1.412       .  A
C2260      C2261   1.409       .  A
C2260      H2265   1.084       .  S
C2261      C2262   1.402       .  A
C2262      C2263   1.507       .  S
C2263      H2267   1.106       .  S
C2263      H2268   1.110       .  S
C2263      H2269   1.108       .  S
C2266      H2270   1.108       .  S
C2266      H2271   1.109       .  S
C2266      H2272   1.111       .  S
C2273      C2274   1.410       .  A
C2273      C2278   1.400       .  A
C2273      H2280   1.077       .  S
C2274      C2275   1.415       .  A
C2275      C2282   1.506       .  S
C2275      C2276   1.407       .  A
C2276      C2277   1.407       .  A
C2276      H2281   1.084       .  S
C2277      C2278   1.405       .  A
C2278      C2279   1.507       .  S
C2279      H2283   1.108       .  S
C2279      H2284   1.110       .  S
C2279      H2285   1.109       .  S
C2282      H2286   1.107       .  S
C2282      H2287   1.110       .  S
C2282      H2288   1.110       .  S
C2289      C2290   1.405       .  A
C2289      C2294   1.410       .  A
C2289      H2296   1.085       .  S
C2290      C2291   1.425       .  A
C2291      C2298   1.496       .  S
C2291      C2292   1.408       .  A
C2292      C2293   1.401       .  A
C2292      H2297   1.085       .  S
C2293      C2294   1.417       .  A
C2294      C2295   1.494       .  S
C2295      H2299   1.105       .  S
C2295      H2300   1.103       .  S
C2295      H2301   1.111       .  S
C2298      H2302   1.096       .  S
C2298      H2303   1.107       .  S
C2298      H2304   1.109       .  S
C2305      C2306   1.405       .  A
C2305      C2310   1.404       .  A
C2305      H2312   1.081       .  S
C2306      C2307   1.417       .  A
C2307      C2314   1.508       .  S
C2307      C2308   1.406       .  A
C2308      C2309   1.403       .  A
C2308      H2313   1.080       .  S
C2309      C2310   1.418       .  A
C2310      C2311   1.511       .  S
C2311      H2315   1.106       .  S
C2311      H2316   1.110       .  S
C2311      H2317   1.108       .  S
C2314      H2318   1.110       .  S
C2314      H2319   1.111       .  S
C2314      H2320   1.111       .  S
C2321      C2322   1.408       .  A
C2321      C2326   1.401       .  A
C2321      H2328   1.083       .  S
C2322      C2323   1.403       .  A
C2323      C2330   1.506       .  S
C2323      C2324   1.403       .  A
C2324      C2325   1.409       .  A
C2324      H2329   1.077   1_565  S
C2325      C2326   1.409       .  A
C2326      C2327   1.506       .  S
C2327      H2331   1.110       .  S
C2327      H2332   1.110       .  S
C2327      H2333   1.106       .  S
C2330      H2334   1.110       .  S
C2330      H2335   1.110   1_565  S
C2330      H2336   1.110       .  S
C2337      C2338   1.400       .  A
C2337      C2342   1.401       .  A
C2337      H2344   1.080       .  S
C2338      C2339   1.422       .  A
C2339      C2346   1.509       .  S
C2339      C2340   1.404       .  A
C2340      C2341   1.404       .  A
C2340      H2345   1.082       .  S
C2341      C2342   1.415       .  A
C2342      C2343   1.508       .  S
C2343      H2347   1.111       .  S
C2343      H2348   1.110       .  S
C2343      H2349   1.111       .  S
C2346      H2350   1.110       .  S
C2346      H2351   1.108       .  S
C2346      H2352   1.111       .  S
C2353      C2354   1.399       .  A
C2353      C2358   1.404       .  A
C2353      H2360   1.082       .  S
C2354      C2355   1.437       .  A
C2355      C2362   1.507       .  S
C2355      C2356   1.414       .  A
C2356      C2357   1.398       .  A
C2356      H2361   1.081       .  S
C2357      C2358   1.428       .  A
C2358      C2359   1.508       .  S
C2359      H2363   1.111       .  S
C2359      H2364   1.111       .  S
C2359      H2365   1.110       .  S
C2362      H2366   1.097       .  S
C2362      H2367   1.110       .  S
C2362      H2368   1.111       .  S
C2369      C2370   1.418       .  A
C2369      C2374   1.388       .  A
C2369      H2376   1.082       .  S
C2370      C2371   1.422   1_455  A
C2371      C2378   1.501       .  S
C2371      C2372   1.424       .  A
C2372      C2373   1.412   1_655  A
C2372      H2377   1.084       .  S
C2373      C2374   1.413       .  A
C2374      C2375   1.516       .  S
C2375      H2379   1.109       .  S
C2375      H2380   1.097       .  S
C2375      H2381   1.111       .  S
C2378      H2382   1.109       .  S
C2378      H2383   1.110       .  S
C2378      H2384   1.111       .  S
C2385      C2386   1.415       .  A
C2385      C2390   1.430   1_545  A
C2385      H2392   1.083   1_545  S
C2386      C2387   1.436       .  A
C2387      C2394   1.507       .  S
C2387      C2388   1.390       .  A
C2388      C2389   1.382       .  A
C2388      H2393   1.084       .  S
C2389      C2390   1.424   1_545  A
C2390      C2391   1.500       .  S
C2391      H2395   1.110       .  S
C2391      H2396   1.108       .  S
C2391      H2397   1.110       .  S
C2394      H2398   1.111       .  S
C2394      H2399   1.091       .  S
C2394      H2400   1.108       .  S
C2401      C2402   1.413       .  A
C2401      C2406   1.404       .  A
C2401      H2408   1.085       .  S
C2402      C2403   1.401       .  A
C2403      C2410   1.506       .  S
C2403      C2404   1.403       .  A
C2404      C2405   1.406       .  A
C2404      H2409   1.065   1_655  S
C2405      C2406   1.412       .  A
C2406      C2407   1.507       .  S
C2407      H2411   1.110       .  S
C2407      H2412   1.105       .  S
C2407      H2413   1.110       .  S
C2410      H2414   1.110       .  S
C2410      H2415   1.106       .  S
C2410      H2416   1.103   1_655  S
C2417      C2418   1.424       .  A
C2417      C2422   1.400       .  A
C2417      H2424   1.076       .  S
C2418      C2419   1.427   1_565  A
C2419      C2426   1.505       .  S
C2419      C2420   1.421       .  A
C2420      C2421   1.408   1_545  A
C2420      H2425   1.084       .  S
C2421      C2422   1.407       .  A
C2422      C2423   1.512       .  S
C2423      H2427   1.111       .  S
C2423      H2428   1.104       .  S
C2423      H2429   1.110       .  S
C2426      H2430   1.110       .  S
C2426      H2431   1.109       .  S
C2426      H2432   1.111       .  S
C2433      C2434   1.405       .  A
C2433      C2438   1.417       .  A
C2433      H2440   1.084       .  S
C2434      C2435   1.412       .  A
C2435      C2442   1.509       .  S
C2435      C2436   1.404       .  A
C2436      C2437   1.419       .  A
C2436      H2441   1.073       .  S
C2437      C2438   1.430       .  A
C2438      C2439   1.506       .  S
C2439      H2443   1.109       .  S
C2439      H2444   1.109       .  S
C2439      H2445   1.111       .  S
C2442      H2446   1.110       .  S
C2442      H2447   1.111       .  S
C2442      H2448   1.104       .  S
C2449      C2450   1.410   1_455  A
C2449      C2454   1.415       .  A
C2449      H2456   1.081       .  S
C2450      C2451   1.439       .  A
C2451      C2458   1.517       .  S
C2451      C2452   1.389       .  A
C2452      C2453   1.387       .  A
C2452      H2457   1.086       .  S
C2453      C2454   1.412   1_655  A
C2454      C2455   1.503       .  S
C2455      H2459   1.111       .  S
C2455      H2460   1.110       .  S
C2455      H2461   1.107       .  S
C2458      H2462   1.097       .  S
C2458      H2463   1.111       .  S
C2458      H2464   1.112       .  S
C2465      C2466   1.404       .  A
C2465      C2470   1.411       .  A
C2465      H2472   1.084       .  S
C2466      C2467   1.398       .  A
C2467      C2474   1.510       .  S
C2467      C2468   1.374       .  A
C2468      C2469   1.418       .  A
C2468      H2473   1.082       .  S
C2469      C2470   1.419       .  A
C2470      C2471   1.502       .  S
C2471      H2475   1.111       .  S
C2471      H2476   1.109       .  S
C2471      H2477   1.110       .  S
C2474      H2478   1.104       .  S
C2474      H2479   1.109       .  S
C2474      H2480   1.110       .  S
C2481      C2482   1.386       .  A
C2481      C2486   1.391       .  A
C2481      H2488   1.085       .  S
C2482      C2483   1.421       .  A
C2483      C2490   1.497       .  S
C2483      C2484   1.402       .  A
C2484      C2485   1.399       .  A
C2484      H2489   1.080       .  S
C2485      C2486   1.438       .  A
C2486      C2487   1.516       .  S
C2487      H2491   1.105       .  S
C2487      H2492   1.111       .  S
C2487      H2493   1.104       .  S
C2490      H2494   1.089       .  S
C2490      H2495   1.111       .  S
C2490      H2496   1.111       .  S
C2497      C2498   1.400       .  A
C2497      C2502   1.402       .  A
C2497      H2504   1.084       .  S
C2498      C2499   1.439       .  A
C2499      C2506   1.508       .  S
C2499      C2500   1.396       .  A
C2500      C2501   1.384       .  A
C2500      H2505   1.086       .  S
C2501      C2502   1.421       .  A
C2502      C2503   1.499       .  S
C2503      H2507   1.104       .  S
C2503      H2508   1.110       .  S
C2503      H2509   1.100       .  S
C2506      H2510   1.110       .  S
C2506      H2511   1.090       .  S
C2506      H2512   1.112       .  S
C2513      C2514   1.401       .  A
C2513      C2518   1.404       .  A
C2513      H2520   1.070       .  S
C2514      C2515   1.412       .  A
C2515      C2522   1.501       .  S
C2515      C2516   1.380       .  A
C2516      C2517   1.399       .  A
C2516      H2521   1.084       .  S
C2517      C2518   1.424       .  A
C2518      C2519   1.505       .  S
C2519      H2523   1.111       .  S
C2519      H2524   1.102       .  S
C2519      H2525   1.109       .  S
C2522      H2526   1.093       .  S
C2522      H2527   1.110       .  S
C2522      H2528   1.111       .  S
C2529      C2530   1.403       .  A
C2529      C2534   1.407       .  A
C2529      H2536   1.085       .  S
C2530      C2531   1.420       .  A
C2531      C2538   1.500       .  S
C2531      C2532   1.414       .  A
C2532      C2533   1.413       .  A
C2532      H2537   1.082       .  S
C2533      C2534   1.430       .  A
C2534      C2535   1.493       .  S
C2535      H2539   1.111       .  S
C2535      H2540   1.080       .  S
C2535      H2541   1.110       .  S
C2538      H2542   1.094       .  S
C2538      H2543   1.106       .  S
C2538      H2544   1.111       .  S
C2545      C2546   1.401       .  A
C2545      C2550   1.395       .  A
C2545      H2552   1.069       .  S
C2546      C2547   1.411       .  A
C2547      C2554   1.499       .  S
C2547      C2548   1.406       .  A
C2548      C2549   1.409       .  A
C2548      H2553   1.084       .  S
C2549      C2550   1.401       .  A
C2550      C2551   1.512       .  S
C2551      H2555   1.104       .  S
C2551      H2556   1.108       .  S
C2551      H2557   1.109       .  S
C2554      H2558   1.110       .  S
C2554      H2559   1.106       .  S
C2554      H2560   1.111       .  S
C2561      C2562   1.386   1_565  A
C2561      C2566   1.371       .  A
C2561      H2568   1.083       .  S
C2562      C2563   1.398       .  A
C2563      C2570   1.505       .  S
C2563      C2564   1.395       .  A
C2564      C2565   1.411   1_545  A
C2564      H2569   1.077       .  S
C2565      C2566   1.429       .  A
C2566      C2567   1.520       .  S
C2567      H2571   1.111       .  S
C2567      H2572   1.111       .  S
C2567      H2573   1.098       .  S
C2570      H2574   1.108       .  S
C2570      H2575   1.110       .  S
C2570      H2576   1.111       .  S
C2577      C2578   1.406       .  A
C2577      C2582   1.422   1_545  A
C2577      H2584   1.082   1_545  S
C2578      C2579   1.450       .  A
C2579      C2586   1.521       .  S
C2579      C2580   1.390       .  A
C2580      C2581   1.382       .  A
C2580      H2585   1.086       .  S
C2581      C2582   1.419   1_545  A
C2582      C2583   1.496       .  S
C2583      H2587   1.111       .  S
C2583      H2588   1.110       .  S
C2583      H2589   1.104       .  S
C2586      H2590   1.096       .  S
C2586      H2591   1.111       .  S
C2586      H2592   1.111       .  S
C2593      C2594   1.398       .  A
C2593      C2598   1.409       .  A
C2593      H2600   1.084       .  S
C2594      C2595   1.425       .  A
C2595      C2602   1.498       .  S
C2595      C2596   1.426       .  A
C2596      C2597   1.408       .  A
C2596      H2601   1.080       .  S
C2597      C2598   1.431       .  A
C2598      C2599   1.506       .  S
C2599      H2603   1.111       .  S
C2599      H2604   1.106       .  S
C2599      H2605   1.109       .  S
C2602      H2606   1.105       .  S
C2602      H2607   1.110       .  S
C2602      H2608   1.110       .  S
C2609      C2610   1.407       .  A
C2609      C2614   1.392       .  A
C2609      H2616   1.070       .  S
C2610      C2611   1.418       .  A
C2611      C2618   1.510       .  S
C2611      C2612   1.408       .  A
C2612      C2613   1.404       .  A
C2612      H2617   1.075       .  S
C2613      C2614   1.406       .  A
C2614      C2615   1.506       .  S
C2615      H2619   1.110       .  S
C2615      H2620   1.110       .  S
C2615      H2621   1.105       .  S
C2618      H2622   1.110       .  S
C2618      H2623   1.106       .  S
C2618      H2624   1.111   1_565  S
C2625      C2626   1.402       .  A
C2625      C2630   1.395       .  A
C2625      H2632   1.081       .  S
C2626      C2627   1.400       .  A
C2627      C2634   1.508   1_565  S
C2627      C2628   1.397       .  A
C2628      C2629   1.409       .  A
C2628      H2633   1.069   1_565  S
C2629      C2630   1.412       .  A
C2630      C2631   1.499       .  S
C2631      H2635   1.111       .  S
C2631      H2636   1.109       .  S
C2631      H2637   1.099       .  S
C2634      H2638   1.105   1_545  S
C2634      H2639   1.111       .  S
C2634      H2640   1.105       .  S
C2641      C2642   1.387       .  A
C2641      C2646   1.382       .  A
C2641      H2648   1.081       .  S
C2642      C2643   1.420       .  A
C2643      C2650   1.508       .  S
C2643      C2644   1.391       .  A
C2644      C2645   1.396       .  A
C2644      H2649   1.083       .  S
C2645      C2646   1.428       .  A
C2646      C2647   1.510       .  S
C2647      H2651   1.112       .  S
C2647      H2652   1.111       .  S
C2647      H2653   1.099   1_545  S
C2650      H2654   1.108       .  S
C2650      H2655   1.107       .  S
C2650      H2656   1.111       .  S
C2657      C2658   1.411   1_655  A
C2657      C2662   1.410       .  A
C2657      H2664   1.083       .  S
C2658      C2659   1.407       .  A
C2659      C2666   1.503       .  S
C2659      C2660   1.389       .  A
C2660      C2661   1.404   1_455  A
C2660      H2665   1.081       .  S
C2661      C2662   1.421       .  A
C2662      C2663   1.507       .  S
C2663      H2667   1.111       .  S
C2663      H2668   1.106       .  S
C2663      H2669   1.109       .  S
C2666      H2670   1.110       .  S
C2666      H2671   1.111       .  S
C2666      H2672   1.111   1_455  S
C2673      C2674   1.384       .  A
C2673      C2678   1.395       .  A
C2673      H2680   1.086       .  S
C2674      C2675   1.413       .  A
C2675      C2682   1.502   1_655  S
C2675      C2676   1.413       .  A
C2676      C2677   1.413       .  A
C2676      H2681   1.080   1_655  S
C2677      C2678   1.439       .  A
C2678      C2679   1.498       .  S
C2679      H2683   1.111       .  S
C2679      H2684   1.101       .  S
C2679      H2685   1.106       .  S
C2682      H2686   1.108       .  S
C2682      H2687   1.107       .  S
C2682      H2688   1.110       .  S
C2689      C2690   1.408       .  A
C2689      C2694   1.404       .  A
C2689      H2696   1.072       .  S
C2690      C2691   1.403       .  A
C2691      C2698   1.505       .  S
C2691      C2692   1.401       .  A
C2692      C2693   1.406       .  A
C2692      H2697   1.071   1_455  S
C2693      C2694   1.406       .  A
C2694      C2695   1.506       .  S
C2695      H2699   1.108       .  S
C2695      H2700   1.111       .  S
C2695      H2701   1.107       .  S
C2698      H2702   1.106       .  S
C2698      H2703   1.110   1_455  S
C2698      H2704   1.104   1_455  S
C2705      C2706   1.412       .  A
C2705      C2710   1.403       .  A
C2705      H2712   1.072   1_655  S
C2706      C2707   1.417       .  A
C2707      C2714   1.505       .  S
C2707      C2708   1.408       .  A
C2708      C2709   1.407       .  A
C2708      H2713   1.084       .  S
C2709      C2710   1.402       .  A
C2710      C2711   1.507       .  S
C2711      H2715   1.108   1_655  S
C2711      H2716   1.109       .  S
C2711      H2717   1.110       .  S
C2714      H2718   1.110       .  S
C2714      H2719   1.105       .  S
C2714      H2720   1.111       .  S
C2721      C2722   1.398       .  A
C2721      C2726   1.395       .  A
C2721      H2728   1.076       .  S
C2722      C2723   1.418       .  A
C2723      C2730   1.509       .  S
C2723      C2724   1.404       .  A
C2724      C2725   1.403       .  A
C2724      H2729   1.083       .  S
C2725      C2726   1.412       .  A
C2726      C2727   1.509       .  S
C2727      H2731   1.111       .  S
C2727      H2732   1.104       .  S
C2727      H2733   1.109       .  S
C2730      H2734   1.110       .  S
C2730      H2735   1.108       .  S
C2730      H2736   1.111       .  S
C2737      C2738   1.406       .  A
C2737      C2742   1.403       .  A
C2737      H2744   1.083       .  S
C2738      C2739   1.415       .  A
C2739      C2746   1.511       .  S
C2739      C2740   1.407       .  A
C2740      C2741   1.406       .  A
C2740      H2745   1.079       .  S
C2741      C2742   1.416       .  A
C2742      C2743   1.507       .  S
C2743      H2747   1.111   1_455  S
C2743      H2748   1.108       .  S
C2743      H2749   1.110       .  S
C2746      H2750   1.106       .  S
C2746      H2751   1.109       .  S
C2746      H2752   1.111       .  S
C2753      C2754   1.405       .  A
C2753      C2758   1.414       .  A
C2753      H2760   1.084       .  S
C2754      C2755   1.400       .  A
C2755      C2762   1.511       .  S
C2755      C2756   1.397       .  A
C2756      C2757   1.424       .  A
C2756      H2761   1.078       .  S
C2757      C2758   1.423       .  A
C2758      C2759   1.503       .  S
C2759      H2763   1.111       .  S
C2759      H2764   1.109       .  S
C2759      H2765   1.109       .  S
C2762      H2766   1.107       .  S
C2762      H2767   1.111       .  S
C2762      H2768   1.111       .  S
C2769      C2770   1.409       .  A
C2769      C2774   1.410       .  A
C2769      H2776   1.079       .  S
C2770      C2771   1.430       .  A
C2771      C2778   1.502       .  S
C2771      C2772   1.418       .  A
C2772      C2773   1.410       .  A
C2772      H2777   1.084       .  S
C2773      C2774   1.425       .  A
C2774      C2775   1.506       .  S
C2775      H2779   1.111       .  S
C2775      H2780   1.111       .  S
C2775      H2781   1.110       .  S
C2778      H2782   1.108       .  S
C2778      H2783   1.102       .  S
C2778      H2784   1.111       .  S
C2785      C2786   1.405       .  A
C2785      C2790   1.398       .  A
C2785      H2792   1.066       .  S
C2786      C2787   1.409       .  A
C2787      C2794   1.505       .  S
C2787      C2788   1.411       .  A
C2788      C2789   1.417       .  A
C2788      H2793   1.082       .  S
C2789      C2790   1.405       .  A
C2790      C2791   1.508       .  S
C2791      H2795   1.107       .  S
C2791      H2796   1.110       .  S
C2791      H2797   1.107       .  S
C2794      H2798   1.110       .  S
C2794      H2799   1.109       .  S
C2794      H2800   1.110       .  S
C2801      C2802   1.410       .  A
C2801      C2806   1.407       .  A
C2801      H2808   1.083       .  S
C2802      C2803   1.435       .  A
C2803      C2810   1.489       .  S
C2803      C2804   1.392       .  A
C2804      C2805   1.379       .  A
C2804      H2809   1.087       .  S
C2805      C2806   1.412       .  A
C2806      C2807   1.506       .  S
C2807      H2811   1.111       .  S
C2807      H2812   1.110       .  S
C2807      H2813   1.110       .  S
C2810      H2814   1.105       .  S
C2810      H2815   1.068       .  S
C2810      H2816   1.112       .  S
C2817      C2818   1.403       .  A
C2817      C2822   1.403       .  A
C2817      H2824   1.085       .  S
C2818      C2819   1.417       .  A
C2819      C2826   1.500       .  S
C2819      C2820   1.416       .  A
C2820      C2821   1.413       .  A
C2820      H2825   1.084       .  S
C2821      C2822   1.427       .  A
C2822      C2823   1.498       .  S
C2823      H2827   1.110       .  S
C2823      H2828   1.091       .  S
C2823      H2829   1.111       .  S
C2826      H2830   1.104       .  S
C2826      H2831   1.108       .  S
C2826      H2832   1.111       .  S
C2833      C2834   1.404       .  A
C2833      C2838   1.399       .  A
C2833      H2840   1.072       .  S
C2834      C2835   1.420       .  A
C2835      C2842   1.505       .  S
C2835      C2836   1.415       .  A
C2836      C2837   1.410       .  A
C2836      H2841   1.081       .  S
C2837      C2838   1.415       .  A
C2838      C2839   1.513       .  S
C2839      H2843   1.102       .  S
C2839      H2844   1.104       .  S
C2839      H2845   1.110       .  S
C2842      H2846   1.110       .  S
C2842      H2847   1.110       .  S
C2842      H2848   1.111       .  S
C2849      C2850   1.383       .  A
C2849      C2854   1.375       .  A
C2849      H2856   1.084       .  S
C2850      C2851   1.414       .  A
C2851      C2858   1.500       .  S
C2851      C2852   1.410       .  A
C2852      C2853   1.407       .  A
C2852      H2857   1.081       .  S
C2853      C2854   1.438       .  A
C2854      C2855   1.518       .  S
C2855      H2859   1.110       .  S
C2855      H2860   1.091       .  S
C2855      H2861   1.111       .  S
C2858      H2862   1.102       .  S
C2858      H2863   1.110       .  S
C2858      H2864   1.111       .  S
C2865      C2866   1.409       .  A
C2865      C2870   1.422       .  A
C2865      H2872   1.084       .  S
C2866      C2867   1.399       .  A
C2867      C2874   1.507       .  S
C2867      C2868   1.382       .  A
C2868      C2869   1.417       .  A
C2868      H2873   1.085       .  S
C2869      C2870   1.420       .  A
C2870      C2871   1.499       .  S
C2871      H2875   1.111       .  S
C2871      H2876   1.109       .  S
C2871      H2877   1.110       .  S
C2874      H2878   1.107       .  S
C2874      H2879   1.101       .  S
C2874      H2880   1.111       .  S
C2881      C2882   1.402       .  A
C2881      C2886   1.410       .  A
C2881      H2888   1.070       .  S
C2882      C2883   1.408       .  A
C2883      C2890   1.505       .  S
C2883      C2884   1.395       .  A
C2884      C2885   1.414       .  A
C2884      H2889   1.077       .  S
C2885      C2886   1.421       .  A
C2886      C2887   1.504       .  S
C2887      H2891   1.108       .  S
C2887      H2892   1.110       .  S
C2887      H2893   1.107       .  S
C2890      H2894   1.102       .  S
C2890      H2895   1.105       .  S
C2890      H2896   1.111       .  S
C2897      C2898   1.413       .  A
C2897      C2902   1.409       .  A
C2897      H2904   1.070       .  S
C2898      C2899   1.421       .  A
C2899      C2906   1.510       .  S
C2899      C2900   1.402       .  A
C2900      C2901   1.407       .  A
C2900      H2905   1.084       .  S
C2901      C2902   1.404       .  A
C2902      C2903   1.503       .  S
C2903      H2907   1.111       .  S
C2903      H2908   1.109       .  S
C2903      H2909   1.108       .  S
C2906      H2910   1.110       .  S
C2906      H2911   1.108       .  S
C2906      H2912   1.111       .  S
C2913      C2914   1.403       .  A
C2913      C2918   1.406       .  A
C2913      H2920   1.084       .  S
C2914      C2915   1.424       .  A
C2915      C2922   1.507       .  S
C2915      C2916   1.403       .  A
C2916      C2917   1.408       .  A
C2916      H2921   1.082       .  S
C2917      C2918   1.425       .  A
C2918      C2919   1.507       .  S
C2919      H2923   1.111       .  S
C2919      H2924   1.110       .  S
C2919      H2925   1.103       .  S
C2922      H2926   1.097       .  S
C2922      H2927   1.098       .  S
C2922      H2928   1.111       .  S
C2929      C2930   1.393       .  A
C2929      C2934   1.390       .  A
C2929      H2936   1.078       .  S
C2930      C2931   1.428       .  A
C2931      C2938   1.493       .  S
C2931      C2932   1.382       .  A
C2932      C2933   1.378       .  A
C2932      H2937   1.087       .  S
C2933      C2934   1.418       .  A
C2934      C2935   1.503       .  S
C2935      H2939   1.105       .  S
C2935      H2940   1.105       .  S
C2935      H2941   1.111       .  S
C2938      H2942   1.109       .  S
C2938      H2943   1.077       .  S
C2938      H2944   1.111       .  S
C2945      C2946   1.382       .  A
C2945      C2950   1.384       .  A
C2945      H2952   1.087       .  S
C2946      C2947   1.413       .  A
C2947      C2954   1.505       .  S
C2947      C2948   1.412       .  A
C2948      C2949   1.409       .  A
C2948      H2953   1.081       .  S
C2949      C2950   1.443       .  A
C2950      C2951   1.520       .  S
C2951      H2955   1.111       .  S
C2951      H2956   1.098       .  S
C2951      H2957   1.111       .  S
C2954      H2958   1.110       .  S
C2954      H2959   1.107       .  S
C2954      H2960   1.111       .  S
C2961      C2962   1.404       .  A
C2961      C2966   1.406       .  A
C2961      H2968   1.080       .  S
C2962      C2963   1.418       .  A
C2963      C2970   1.504       .  S
C2963      C2964   1.403       .  A
C2964      C2965   1.402       .  A
C2964      H2969   1.083       .  S
C2965      C2966   1.430       .  A
C2966      C2967   1.506       .  S
C2967      H2971   1.110       .  S
C2967      H2972   1.110       .  S
C2967      H2973   1.106       .  S
C2970      H2974   1.105       .  S
C2970      H2975   1.108       .  S
C2970      H2976   1.112       .  S
C2977      C2978   1.408       .  A
C2977      C2982   1.407       .  A
C2977      H2984   1.083       .  S
C2978      C2979   1.434       .  A
C2979      C2986   1.497       .  S
C2979      C2980   1.414       .  A
C2980      C2981   1.406       .  A
C2980      H2985   1.080       .  S
C2981      C2982   1.423       .  A
C2982      C2983   1.510       .  S
C2983      H2987   1.111       .  S
C2983      H2988   1.110       .  S
C2983      H2989   1.109       .  S
C2986      H2990   1.093       .  S
C2986      H2991   1.111       .  S
C2986      H2992   1.109       .  S
C2993      C2994   1.395       .  A
C2993      C2998   1.398       .  A
C2993      H3000   1.085       .  S
C2994      C2995   1.414       .  A
C2995      C3002   1.494       .  S
C2995      C2996   1.403       .  A
C2996      C2997   1.400       .  A
C2996      H3001   1.084       .  S
C2997      C2998   1.428       .  A
C2998      C2999   1.508       .  S
C2999      H3003   1.111       .  S
C2999      H3004   1.110       .  S
C2999      H3005   1.105       .  S
C3002      H3006   1.101       .  S
C3002      H3007   1.110       .  S
C3002      H3008   1.110       .  S
C3009      C3010   1.396       .  A
C3009      C3014   1.410       .  A
C3009      H3016   1.081       .  S
C3010      C3011   1.416       .  A
C3011      C3018   1.507       .  S
C3011      C3012   1.399       .  A
C3012      C3013   1.404       .  A
C3012      H3017   1.079       .  S
C3013      C3014   1.439       .  A
C3014      C3015   1.507       .  S
C3015      H3019   1.111       .  S
C3015      H3020   1.103       .  S
C3015      H3021   1.110       .  S
C3018      H3022   1.110       .  S
C3018      H3023   1.111       .  S
C3018      H3024   1.110       .  S
C3025      C3026   1.406       .  A
C3025      C3030   1.391       .  A
C3025      H3032   1.064       .  S
C3026      C3027   1.411       .  A
C3027      C3034   1.504       .  S
C3027      C3028   1.406       .  A
C3028      C3029   1.413       .  A
C3028      H3033   1.084       .  S
C3029      C3030   1.396       .  A
C3030      C3031   1.506       .  S
C3031      H3035   1.108       .  S
C3031      H3036   1.106       .  S
C3031      H3037   1.109       .  S
C3034      H3038   1.107       .  S
C3034      H3039   1.111       .  S
C3034      H3040   1.109       .  S
C3041      C3042   1.404       .  A
C3041      C3046   1.409       .  A
C3041      H3048   1.084       .  S
C3042      C3043   1.399       .  A
C3043      C3050   1.510       .  S
C3043      C3044   1.393       .  A
C3044      C3045   1.422       .  A
C3044      H3049   1.083       .  S
C3045      C3046   1.422       .  A
C3046      C3047   1.502       .  S
C3047      H3051   1.111       .  S
C3047      H3052   1.110       .  S
C3047      H3053   1.108       .  S
C3050      H3054   1.108       .  S
C3050      H3055   1.106       .  S
C3050      H3056   1.111       .  S
C3057      C3058   1.407       .  A
C3057      C3062   1.422       .  A
C3057      H3064   1.084       .  S
C3058      C3059   1.409       .  A
C3059      C3066   1.510       .  S
C3059      C3060   1.400       .  A
C3060      C3061   1.417       .  A
C3060      H3065   1.072       .  S
C3061      C3062   1.430       .  A
C3062      C3063   1.504       .  S
C3063      H3067   1.111       .  S
C3063      H3068   1.109       .  S
C3063      H3069   1.110       .  S
C3066      H3070   1.107       .  S
C3066      H3071   1.109       .  S
C3066      H3072   1.110       .  S
C3073      C3074   1.374       .  A
C3073      C3078   1.385       .  A
C3073      H3080   1.087       .  S
C3074      C3075   1.416       .  A
C3075      C3082   1.507       .  S
C3075      C3076   1.412       .  A
C3076      C3077   1.407       .  A
C3076      H3081   1.084       .  S
C3077      C3078   1.422       .  A
C3078      C3079   1.474       .  S
C3079      H3083   1.110       .  S
C3079      H3084   1.100       .  S
C3079      H3085   1.092       .  S
C3082      H3086   1.109       .  S
C3082      H3087   1.109       .  S
C3082      H3088   1.111       .  S
C3089      C3090   1.407       .  A
C3089      C3094   1.391       .  A
C3089      H3096   1.072       .  S
C3090      C3091   1.410       .  A
C3091      C3098   1.507       .  S
C3091      C3092   1.403       .  A
C3092      C3093   1.412       .  A
C3092      H3097   1.085       .  S
C3093      C3094   1.404       .  A
C3094      C3095   1.510       .  S
C3095      H3099   1.111       .  S
C3095      H3100   1.104       .  S
C3095      H3101   1.110       .  S
C3098      H3102   1.105       .  S
C3098      H3103   1.110       .  S
C3098      H3104   1.111       .  S
C3105      C3106   1.401       .  A
C3105      C3110   1.405       .  A
C3105      H3112   1.083       .  S
C3106      C3107   1.417       .  A
C3107      C3114   1.500       .  S
C3107      C3108   1.412       .  A
C3108      C3109   1.411       .  A
C3108      H3113   1.084       .  S
C3109      C3110   1.419       .  A
C3110      C3111   1.491       .  S
C3111      H3115   1.111       .  S
C3111      H3116   1.105       .  S
C3111      H3117   1.103       .  S
C3114      H3118   1.110       .  S
C3114      H3119   1.101       .  S
C3114      H3120   1.108       .  S
C3121      C3122   1.409       .  A
C3121      C3126   1.411       .  A
C3121      H3128   1.079       .  S
C3122      C3123   1.417       .  A
C3123      C3130   1.512       .  S
C3123      C3124   1.404       .  A
C3124      C3125   1.412       .  A
C3124      H3129   1.075       .  S
C3125      C3126   1.415       .  A
C3126      C3127   1.506       .  S
C3127      H3131   1.110       .  S
C3127      H3132   1.110       .  S
C3127      H3133   1.110       .  S
C3130      H3134   1.107       .  S
C3130      H3135   1.110       .  S
C3130      H3136   1.111       .  S
C3137      C3138   1.385       .  A
C3137      C3142   1.400       .  A
C3137      H3144   1.087       .  S
C3138      C3139   1.421   1_554  A
C3139      C3146   1.501       .  S
C3139      C3140   1.434   1_556  A
C3140      C3141   1.416       .  A
C3140      H3145   1.083   1_554  S
C3141      C3142   1.448       .  A
C3142      C3143   1.510       .  S
C3143      H3147   1.110       .  S
C3143      H3148   1.096       .  S
C3143      H3149   1.111       .  S
C3146      H3150   1.107       .  S
C3146      H3151   1.111       .  S
C3146      H3152   1.110       .  S
C3153      C3154   1.402   1_554  A
C3153      C3158   1.416   1_554  A
C3153      H3160   1.084       .  S
C3154      C3155   1.404       .  A
C3155      C3162   1.505       .  S
C3155      C3156   1.388       .  A
C3156      C3157   1.416       .  A
C3156      H3161   1.086       .  S
C3157      C3158   1.426       .  A
C3158      C3159   1.500   1_556  S
C3159      H3163   1.111       .  S
C3159      H3164   1.109       .  S
C3159      H3165   1.110       .  S
C3162      H3166   1.110       .  S
C3162      H3167   1.100       .  S
C3162      H3168   1.110       .  S
C3169      C3170   1.401       .  A
C3169      C3174   1.395       .  A
C3169      H3176   1.059       .  S
C3170      C3171   1.404       .  A
C3171      C3178   1.504       .  S
C3171      C3172   1.410       .  A
C3172      C3173   1.419       .  A
C3172      H3177   1.084       .  S
C3173      C3174   1.405       .  A
C3174      C3175   1.505       .  S
C3175      H3179   1.111   1_554  S
C3175      H3180   1.099       .  S
C3175      H3181   1.110       .  S
C3178      H3182   1.111       .  S
C3178      H3183   1.110       .  S
C3178      H3184   1.111       .  S
C3185      C3186   1.409       .  A
C3185      C3190   1.396       .  A
C3185      H3192   1.072   1_556  S
C3186      C3187   1.408       .  A
C3187      C3194   1.502       .  S
C3187      C3188   1.398       .  A
C3188      C3189   1.406       .  A
C3188      H3193   1.085       .  S
C3189      C3190   1.396       .  A
C3190      C3191   1.506       .  S
C3191      H3195   1.107   1_556  S
C3191      H3196   1.110       .  S
C3191      H3197   1.110       .  S
C3194      H3198   1.108       .  S
C3194      H3199   1.111       .  S
C3194      H3200   1.106       .  S
C3201      C3202   1.401       .  A
C3201      C3206   1.406       .  A
C3201      H3208   1.081       .  S
C3202      C3203   1.421       .  A
C3203      C3210   1.498       .  S
C3203      C3204   1.410       .  A
C3204      C3205   1.408       .  A
C3204      H3209   1.085       .  S
C3205      C3206   1.421       .  A
C3206      C3207   1.494       .  S
C3207      H3211   1.111       .  S
C3207      H3212   1.108       .  S
C3207      H3213   1.099       .  S
C3210      H3214   1.111       .  S
C3210      H3215   1.098       .  S
C3210      H3216   1.108       .  S
C3217      C3218   1.408       .  A
C3217      C3222   1.404       .  A
C3217      H3224   1.075       .  S
C3218      C3219   1.416       .  A
C3219      C3226   1.508       .  S
C3219      C3220   1.411       .  A
C3220      C3221   1.405       .  A
C3220      H3225   1.081       .  S
C3221      C3222   1.417       .  A
C3222      C3223   1.510       .  S
C3223      H3227   1.110       .  S
C3223      H3228   1.111       .  S
C3223      H3229   1.107       .  S
C3226      H3230   1.109       .  S
C3226      H3231   1.102       .  S
C3226      H3232   1.106       .  S
C3233      C3234   1.406       .  A
C3233      C3238   1.414       .  A
C3233      H3240   1.078       .  S
C3234      C3235   1.417       .  A
C3235      C3242   1.510       .  S
C3235      C3236   1.399       .  A
C3236      C3237   1.413       .  A
C3236      H3241   1.077       .  S
C3237      C3238   1.427       .  A
C3238      C3239   1.505       .  S
C3239      H3243   1.110       .  S
C3239      H3244   1.109       .  S
C3239      H3245   1.111       .  S
C3242      H3246   1.110       .  S
C3242      H3247   1.104       .  S
C3242      H3248   1.111       .  S
C3249      C3250   1.394       .  A
C3249      C3254   1.398       .  A
C3249      H3256   1.085       .  S
C3250      C3251   1.414       .  A
C3251      C3258   1.502       .  S
C3251      C3252   1.409       .  A
C3252      C3253   1.413       .  A
C3252      H3257   1.081       .  S
C3253      C3254   1.437       .  A
C3254      C3255   1.514       .  S
C3255      H3259   1.111       .  S
C3255      H3260   1.107       .  S
C3255      H3261   1.106       .  S
C3258      H3262   1.110       .  S
C3258      H3263   1.110       .  S
C3258      H3264   1.100       .  S
C3265      C3266   1.404       .  A
C3265      C3270   1.414       .  A
C3265      H3272   1.068       .  S
C3266      C3267   1.407       .  A
C3267      C3274   1.506       .  S
C3267      C3268   1.398       .  A
C3268      C3269   1.419       .  A
C3268      H3273   1.082       .  S
C3269      C3270   1.419       .  A
C3270      C3271   1.505       .  S
C3271      H3275   1.111       .  S
C3271      H3276   1.107       .  S
C3271      H3277   1.110       .  S
C3274      H3278   1.108       .  S
C3274      H3279   1.110       .  S
C3274      H3280   1.110       .  S
C3281      C3282   1.401       .  A
C3281      C3286   1.406       .  A
C3281      H3288   1.081       .  S
C3282      C3283   1.432       .  A
C3283      C3290   1.497       .  S
C3283      C3284   1.415       .  A
C3284      C3285   1.404       .  A
C3284      H3289   1.080       .  S
C3285      C3286   1.431       .  A
C3286      C3287   1.512       .  S
C3287      H3291   1.112       .  S
C3287      H3292   1.110       .  S
C3287      H3293   1.111       .  S
C3290      H3294   1.087       .  S
C3290      H3295   1.111       .  S
C3290      H3296   1.111       .  S
C3297      C3298   1.393       .  A
C3297      C3302   1.402       .  A
C3297      H3304   1.082       .  S
C3298      C3299   1.433       .  A
C3299      C3306   1.508       .  S
C3299      C3300   1.406       .  A
C3300      C3301   1.400       .  A
C3300      H3305   1.081       .  S
C3301      C3302   1.438       .  A
C3302      C3303   1.509       .  S
C3303      H3307   1.111       .  S
C3303      H3308   1.111       .  S
C3303      H3309   1.100       .  S
C3306      H3310   1.101       .  S
C3306      H3311   1.099       .  S
C3306      H3312   1.111       .  S
C3313      C3314   1.417       .  A
C3313      C3318   1.399       .  A
C3313      H3320   1.067       .  S
C3314      C3315   1.412       .  A
C3315      C3322   1.500       .  S
C3315      C3316   1.406       .  A
C3316      C3317   1.414       .  A
C3316      H3321   1.084       .  S
C3317      C3318   1.402       .  A
C3318      C3319   1.507       .  S
C3319      H3323   1.097       .  S
C3319      H3324   1.103       .  S
C3319      H3325   1.110       .  S
C3322      H3326   1.104       .  S
C3322      H3327   1.110       .  S
C3322      H3328   1.111       .  S
