geometry optimzed in LAMMPS
_audit_creation_date              2020-11-30 
_audit_creation_method            'lammps2cif' 
_symmetry_space_group_name_H-M    'P1' 
_symmetry_Int_Tables_number       1 
_symmetry_cell_setting            triclinic 
loop_ 
_symmetry_equiv_pos_as_xyz 
  x,y,z 
_cell_length_a                    34.41897276 
_cell_length_b                    34.74182922184798 
_cell_length_c                    34.40791358354502 
_cell_angle_alpha                 88.95574851068201 
_cell_angle_beta                  88.68939985642223 
_cell_angle_gamma                 91.18287477410178 
loop_ 
_atom_site_label 
_atom_site_type_symbol 
_atom_site_fract_x 
_atom_site_fract_y 
_atom_site_fract_z 
_atom_site_charge 
O1          O  0.53893680  0.05052770  0.85973938    -0.81200
O2          O  0.53410503  0.05734227  0.63751655    -0.82700
O3          O  0.61349037  0.04238439  0.74188300    -0.79700
O4          O  0.52658481  0.13189688  0.75718165    -0.78100
O5          O  0.46014788  0.13179119  0.75570619    -0.79900
O6          O  0.61037252  0.97690128  0.74368492    -0.80800
O7          O  0.56438256  0.09315367  0.68360075    -0.82200
O8          O  0.57531005  0.07996727  0.81112001    -0.82400
Eu9        Eu  0.54664909  0.06497255  0.74823183     2.39200
O10         O  0.49163973  0.06498676  0.70909763    -0.90000
O11         O  0.54398987  0.00974710  0.78883857    -0.93600
C12         C  0.56793345  0.07200493  0.84741388     1.01100
C13         C  0.55682855  0.08525095  0.64793383     1.00900
C14         C  0.62937449  0.00906860  0.74070065     1.00900
C15         C  0.49355032  0.14871628  0.76003704     0.98800
H16         H  0.56842611  0.00951288  0.69210435     0.28500
O17         O  0.54596790  0.00962241  0.70942509    -1.02300
H18         H  0.49114854  0.08624450  0.80589410     0.28500
O19         O  0.49068554  0.06429429  0.78912403    -1.04900
O20         O  0.44705279  0.96129364  0.64205081    -0.82100
O21         O  0.43815224  0.96724732  0.86367173    -0.81600
O22         O  0.56233679  0.92795404  0.68746200    -0.80100
O23         O  0.41826505  0.09009467  0.68514758    -0.83400
O24         O  0.40939132  0.08334380  0.81251153    -0.81300
O25         O  0.56827992  0.93406970  0.81386543    -0.79900
O26         O  0.45324649  0.88771504  0.76218518    -0.81500
O27         O  0.36511400  0.97742815  0.74622308    -0.83400
O28         O  0.51975914  0.88840605  0.75823856    -0.80100
O29         O  0.36727837  0.04344124  0.74319081    -0.82800
O30         O  0.53302073  0.96249979  0.63936085    -0.78500
O31         O  0.53447423  0.96546074  0.86149725    -0.78600
O32         O  0.44314303  0.05411304  0.86092226    -0.78200
O33         O  0.44688430  0.05314966  0.63839386    -0.81700
O34         O  0.41454753  0.92717394  0.69070644    -0.81100
O35         O  0.40249277  0.93847194  0.81702715    -0.79500
Eu36       Eu  0.49063403  0.00918905  0.67114284     2.39800
Eu37       Eu  0.48850958  0.00938584  0.83021786     2.39600
Eu38       Eu  0.54307564  0.95466554  0.75070393     2.38400
Eu39       Eu  0.43572883  0.06490327  0.74932991     2.39900
Eu40       Eu  0.43203647  0.95466407  0.75308781     2.39800
O41         O  0.43351075  0.01023018  0.79067049    -0.93900
O42         O  0.48786671  0.95434621  0.71238456    -0.92800
C43         C  0.42318717  0.93445935  0.65459040     1.01300
C44         C  0.40951090  0.94534718  0.85286895     1.00000
C45         C  0.55530201  0.93560489  0.65148169     0.99400
C46         C  0.42487446  0.08057126  0.64959767     1.01400
C47         C  0.41650684  0.07667606  0.84857235     1.00300
C48         C  0.56056674  0.94181420  0.84972791     0.99200
C49         C  0.48649838  0.87112402  0.76282751     0.99200
C50         C  0.34910540  0.01053732  0.74228592     1.01900
H51         H  0.48673669  0.93228263  0.80957035     0.29200
O52         O  0.48738608  0.95432624  0.79206508    -1.06000
H53         H  0.41250919  0.00915783  0.69462522     0.31300
O54         O  0.43465085  0.00929643  0.71134483    -1.08600
C55         C  0.68851078  0.20744646  0.49436381     0.85500
C56         C  0.66867153  0.19144716  0.53189036    -0.54800
C57         C  0.62938576  0.18629238  0.52974927     0.08400
C58         C  0.61281819  0.19947653  0.49058478     0.19300
C59         C  0.67515273  0.18030024  0.46217144    -0.55500
C60         C  0.63548969  0.17635958  0.46003488     0.08500
C61         C  0.66722408  0.24446204  0.48403938    -0.55000
C62         C  0.62808869  0.24096222  0.48326043     0.09100
H63         H  0.68481722  0.18207622  0.55699505     0.13600
H64         H  0.58069018  0.19639893  0.48942930    -0.00700
H65         H  0.69488120  0.16640743  0.44213753     0.13900
H66         H  0.68137107  0.27204283  0.47719612     0.13700
O67         O  0.53516463  0.05454309  0.35939299    -0.81200
O68         O  0.54115657  0.04801730  0.13845198    -0.82700
O69         O  0.61476316  0.04041411  0.25903029    -0.79700
O70         O  0.52701269  0.12846846  0.23749370    -0.78100
O71         O  0.46066040  0.12640185  0.23924370    -0.79900
O72         O  0.61434324  0.97448008  0.25935979    -0.80800
O73         O  0.57734729  0.07890099  0.18394735    -0.82200
O74         O  0.56454352  0.09091120  0.31085504    -0.82400
Eu75       Eu  0.54846821  0.06219047  0.24836660     2.39200
O76         O  0.49310406  0.06138935  0.20957338    -0.90000
O77         O  0.54704149  0.00722385  0.28935873    -0.93600
C78         C  0.55685323  0.08312401  0.34712088     1.01100
C79         C  0.56963930  0.07035192  0.14851520     1.00900
C80         C  0.63145769  0.00768059  0.26285911     1.00900
C81         C  0.49358272  0.14421199  0.23425859     0.98800
H82         H  0.57131797  0.00601226  0.19519478     0.28500
O83         O  0.54781288  0.00626041  0.21101233    -1.02300
H84         H  0.49225534  0.08551233  0.30348285     0.28500
O85         O  0.49264656  0.06209398  0.28883831    -1.04900
O86         O  0.44502610  0.96010668  0.14379546    -0.82100
O87         O  0.44972494  0.95855988  0.36574895    -0.81600
O88         O  0.57222513  0.93244684  0.18840786    -0.80100
O89         O  0.41198649  0.08009377  0.18636290    -0.83400
O90         O  0.41800810  0.08789945  0.31350828    -0.81300
O91         O  0.56496664  0.92667715  0.31566506    -0.79900
O92         O  0.45636961  0.88306350  0.24581397    -0.81500
O93         O  0.36919475  0.97290265  0.26813229    -0.83400
O94         O  0.52289192  0.88404883  0.24297277    -0.80100
O95         O  0.37176899  0.03862643  0.26437098    -0.82800
O96         O  0.53754143  0.96208389  0.14096061    -0.78500
O97         O  0.53701430  0.96426595  0.36231930    -0.78600
O98         O  0.44757883  0.05346637  0.36114631    -0.78200
O99         O  0.44649512  0.04881891  0.13921204    -0.81700
O100        O  0.40789497  0.93122271  0.19285733    -0.81100
O101        O  0.42006299  0.92178931  0.32043633    -0.79500
Eu102      Eu  0.49191984  0.00560041  0.17230446     2.39800
Eu103      Eu  0.49146972  0.00708803  0.33028945     2.39600
Eu104      Eu  0.54665392  0.95130414  0.25178373     2.38400
Eu105      Eu  0.43761305  0.06065620  0.25043872     2.39900
Eu106      Eu  0.43531660  0.94983572  0.25513678     2.39800
O107        O  0.43614138  0.00604645  0.29205447    -0.93900
O108        O  0.49084125  0.95108924  0.21392971    -0.92800
C109        C  0.41686021  0.93786090  0.15670216     1.01300
C110        C  0.42834445  0.92940335  0.35605023     1.00000
C111        C  0.56453514  0.93966414  0.15257113     0.99400
C112        C  0.42015332  0.07242456  0.15046456     1.01400
C113        C  0.42471057  0.08020101  0.34964056     1.00300
C114        C  0.55864767  0.93650435  0.35116039     0.99200
C115        C  0.48938503  0.86662373  0.24067214     0.99200
C116        C  0.35382255  0.00634056  0.27126632     1.01900
H117        H  0.49171812  0.92777733  0.30875590     0.29200
O118        O  0.49130382  0.95079762  0.29267591    -1.06000
H119        H  0.41264341  0.00495578  0.19870831     0.31300
O120        O  0.43603917  0.00477134  0.21356867    -1.08600
C121        C  0.29522951  0.80624142  0.00886038     0.85500
C122        C  0.31327144  0.82812808  0.97294911    -0.54800
C123        C  0.31518332  0.86749499  0.97618799     0.08400
C124        C  0.29759532  0.88130579  0.01532176     0.19300
C125        C  0.31959324  0.82043216  0.04272085    -0.55500
C126        C  0.32149770  0.85956541  0.04589154     0.08500
C127        C  0.25556673  0.82428280  0.01431943    -0.55000
C128        C  0.25622409  0.86289186  0.01880842     0.09100
H129        H  0.32521536  0.81447189  0.94750404     0.13600
H130        H  0.29775707  0.91304919  0.01819854    -0.00700
H131        H  0.33472255  0.80108494  0.06204586     0.13900
H132        H  0.22848010  0.80758027  0.01439415     0.13700
C133        C  0.68768848  0.81390590  0.99913069     0.85500
C134        C  0.66062545  0.82397132  0.03347923    -0.54800
C135        C  0.65246706  0.86204708  0.03520303     0.08400
C136        C  0.67140353  0.88711125  0.00293241     0.19300
C137        C  0.66667848  0.83045844  0.96304349    -0.55500
C138        C  0.65756204  0.86877712  0.96508604     0.08500
C139        C  0.72336751  0.84067240  0.00227022    -0.55000
C140        C  0.71500417  0.87870460  0.00461945     0.09100
H141        H  0.64905316  0.80291999  0.05465811     0.13600
H142        H  0.66435258  0.91775487  0.00660487    -0.00700
H143        H  0.65940419  0.81425296  0.93770841     0.13900
H144        H  0.75298038  0.83041985  0.00232475     0.13700
C145        C  0.68230241  0.81001304  0.50049074     0.85500
C146        C  0.66940471  0.83734391  0.46731398    -0.54800
C147        C  0.63059249  0.84399215  0.46764262     0.08400
C148        C  0.60745815  0.82263517  0.49994542     0.19300
C149        C  0.66597674  0.82851630  0.53777880    -0.55500
C150        C  0.62674253  0.83576344  0.53762533     0.08500
C151        C  0.65693613  0.77378790  0.49507870    -0.55000
C152        C  0.61808892  0.78026035  0.49515031     0.09100
H153        H  0.68776352  0.84976930  0.44428766     0.13600
H154        H  0.57601485  0.82812877  0.49811239    -0.00700
H155        H  0.68451258  0.83654209  0.56154109     0.13900
H156        H  0.66865570  0.74523900  0.49149550     0.13700
C157        C  0.29206548  0.20215888  0.00265461     0.85500
C158        C  0.31322606  0.18534465  0.03836665    -0.54800
C159        C  0.32381477  0.14743493  0.03511082     0.08400
C160        C  0.31052356  0.12961881  0.99671641     0.19300
C161        C  0.31861253  0.19374718  0.96747431    -0.55500
C162        C  0.32822050  0.15606871  0.96474630     0.08500
C163        C  0.25712269  0.17411091  0.99926844    -0.55000
C164        C  0.26664818  0.13655083  0.99568555     0.09100
H165        H  0.31866024  0.20162420  0.06433409     0.13600
H166        H  0.31859829  0.09928618  0.99244917    -0.00700
H167        H  0.32880556  0.21564002  0.94650095     0.13900
H168        H  0.22694321  0.18237066  0.00148423     0.13700
C169        C  0.68570274  0.20709384  0.99474818     0.85500
C170        C  0.66532866  0.18951623  0.95922391    -0.54800
C171        C  0.66612521  0.15002058  0.95820427     0.08400
C172        C  0.68650364  0.13171476  0.99319576     0.19300
C173        C  0.66442855  0.18718587  0.02945175    -0.55500
C174        C  0.66465905  0.14800172  0.02888875     0.08500
C175        C  0.72624854  0.19028557  0.99289706    -0.55000
C176        C  0.72721850  0.15127080  0.99246772     0.09100
H177        H  0.64971058  0.20568855  0.93772279     0.13600
H178        H  0.68711075  0.09977513  0.99292380    -0.00700
H179        H  0.64890057  0.20282228  0.05180157     0.13900
H180        H  0.75251021  0.20823069  0.99103179     0.13700
C181        C  0.29652397  0.20523930  0.50048924     0.85500
C182        C  0.31207208  0.18593181  0.46330764    -0.54800
C183        C  0.35106375  0.17888825  0.46339797     0.08400
C184        C  0.37104186  0.19122630  0.50072605     0.19300
C185        C  0.30896740  0.17709862  0.53340257    -0.55500
C186        C  0.34781351  0.16974499  0.53311348     0.08500
C187        C  0.32265005  0.24093219  0.50573233    -0.55000
C188        C  0.36132493  0.23369382  0.50650006     0.09100
H189        H  0.29349878  0.17659851  0.44003850     0.13600
H190        H  0.40268903  0.18551442  0.50056357    -0.00700
H191        H  0.28999547  0.16366383  0.55529526     0.13900
H192        H  0.31133264  0.26959403  0.50975082     0.13700
C193        C  0.29238739  0.81252552  0.51103638     0.85500
C194        C  0.30985132  0.83501411  0.54448585    -0.54800
C195        C  0.34950665  0.83432251  0.54529005     0.08400
C196        C  0.36857874  0.81140334  0.51204495     0.19300
C197        C  0.31296475  0.83093764  0.47469541    -0.55500
C198        C  0.35256129  0.83025375  0.47479417     0.08500
C199        C  0.30925547  0.77234635  0.51444234    -0.55000
C200        C  0.34870116  0.77095714  0.51445372     0.09100
H201        H  0.29252162  0.85125415  0.56497196     0.13600
H202        H  0.40081462  0.81112054  0.51267137    -0.00700
H203        H  0.29881400  0.84653383  0.45182822     0.13900
H204        H  0.29090639  0.74655194  0.51686804     0.13700
O205        O  0.86374683  0.76578555  0.53116855    -0.81200
O206        O  0.02598551  0.75166671  0.37527529    -0.82700
O207        O  0.91538119  0.82144767  0.41534491    -0.79700
O208        O  0.91431382  0.69512768  0.41847844    -0.78100
O209        O  0.94943560  0.64940028  0.44943722    -0.79900
O210        O  0.94450258  0.86828944  0.45091238    -0.80800
O211        O  0.95957962  0.75077468  0.37460556    -0.82200
O212        O  0.86583999  0.76661715  0.46460844    -0.82400
Eu213      Eu  0.93432870  0.75883030  0.44169594     2.39200
O214        O  0.99071905  0.72206339  0.44366361    -0.90000
O215        O  0.93308440  0.79678325  0.49748646    -0.93600
C216        C  0.84776672  0.76973788  0.49784929     1.01100
C217        C  0.99334437  0.74722760  0.35791212     1.00900
C218        C  0.92214296  0.85702497  0.42333261     1.00900
C219        C  0.92450419  0.65989195  0.42409353     0.98800
H220        H  0.98970090  0.81515627  0.41870710     0.28500
O221        O  0.98960870  0.79955779  0.44216848    -1.02300
H222        H  0.90922228  0.70243688  0.49547043     0.28500
O223        O  0.93236184  0.71845828  0.49703643    -1.04900
O224        O  0.11159596  0.77276039  0.46795754    -0.82100
O225        O  0.94925190  0.74507200  0.62051650    -0.81600
O226        O  0.03090918  0.87231181  0.45044079    -0.80100
O227        O  0.03891116  0.65231752  0.45635542    -0.83400
O228        O  0.93855228  0.64677597  0.53876906    -0.81300
O229        O  0.94243948  0.86746704  0.54408947    -0.79900
O230        O  0.06147897  0.82112995  0.58151307    -0.81500
O231        O  0.07000763  0.69786386  0.57324765    -0.83400
O232        O  0.03492242  0.86795957  0.54398456    -0.80100
O233        O  0.03488385  0.65011738  0.54418667    -0.82800
O234        O  0.06197582  0.82737581  0.41367890    -0.78500
O235        O  0.91088960  0.81905404  0.57940450    -0.78600
O236        O  0.90128270  0.69240216  0.56736969    -0.78200
O237        O  0.07395448  0.70070293  0.42502501    -0.81700
O238        O  0.10821002  0.77114741  0.53429788    -0.81100
O239        O  0.01576755  0.74689410  0.62110206    -0.79500
Eu240      Eu  0.04597307  0.76276290  0.44260402     2.39800
Eu241      Eu  0.93016217  0.75654765  0.55305011     2.39600
Eu242      Eu  0.98819641  0.83790692  0.49832017     2.38400
Eu243      Eu  0.98919461  0.68094997  0.49867569     2.39900
Eu244      Eu  0.04100783  0.75936309  0.55479240     2.39800
O245        O  0.98589045  0.71842000  0.55466547    -0.93900
O246        O  0.04362816  0.79993928  0.49900712    -0.92800
C247        C  0.12683836  0.77616698  0.50169645     1.01300
C248        C  0.98200505  0.74215063  0.63771898     1.00000
C249        C  0.05327255  0.86244936  0.42183028     0.99400
C250        C  0.06675435  0.66482558  0.43332571     1.01400
C251        C  0.90879878  0.65707815  0.55936210     1.00300
C252        C  0.91880591  0.85485727  0.57129944     0.99200
C253        C  0.05722329  0.85671689  0.57178095     0.99200
C254        C  0.06238427  0.66217101  0.56629915     1.01900
H255        H  0.98512607  0.81228914  0.57799273     0.29200
O256        O  0.98559077  0.79744780  0.55454547    -1.06000
H257        H  0.06787562  0.70810508  0.49907272     0.31300
O258        O  0.04424583  0.72252384  0.49856454    -1.08600
O259        O  0.86915177  0.24869704  0.53215385    -0.81200
O260        O  0.02983916  0.27231987  0.37813179    -0.82700
O261        O  0.91164149  0.32454581  0.42695537    -0.79700
O262        O  0.92065256  0.19768547  0.41919645    -0.78100
O263        O  0.95120004  0.15059774  0.45396791    -0.79900
O264        O  0.94485069  0.37173459  0.45895051    -0.80800
O265        O  0.96319000  0.26996657  0.37788643    -0.82200
O266        O  0.87123220  0.24967338  0.46543184    -0.82400
Eu267      Eu  0.93881131  0.26105964  0.44490144     2.39200
O268        O  0.99505128  0.22378626  0.44539483    -0.90000
O269        O  0.93577307  0.29833618  0.50108943    -0.93600
C270        C  0.85338640  0.24573658  0.49858691     1.01100
C271        C  0.99690388  0.27400915  0.36101965     1.00900
C272        C  0.91844777  0.36015546  0.43554635     1.00900
C273        C  0.92820474  0.16218864  0.42711112     0.98800
H274        H  0.99441162  0.32004974  0.42315679     0.28500
O275        O  0.99392647  0.30245261  0.44521383    -1.02300
H276        H  0.91618301  0.20191095  0.50037792     0.28500
O277        O  0.93802407  0.21978809  0.50041291    -1.04900
O278        O  0.11731368  0.25646431  0.46801970    -0.82100
O279        O  0.95523060  0.26615237  0.62413023    -0.81600
O280        O  0.04011720  0.37381382  0.46030796    -0.80100
O281        O  0.04040861  0.15558700  0.45399007    -0.83400
O282        O  0.95313422  0.14968849  0.55171173    -0.81300
O283        O  0.94245996  0.36694176  0.54556524    -0.79900
O284        O  0.07077398  0.32548112  0.57684920    -0.81500
O285        O  0.06554335  0.19905971  0.58357517    -0.83400
O286        O  0.03594359  0.37130447  0.54563292    -0.80100
O287        O  0.03905139  0.15184150  0.54603798    -0.82800
O288        O  0.07846677  0.32880246  0.43139411    -0.78500
O289        O  0.90925038  0.31838004  0.57800380    -0.78600
O290        O  0.91878638  0.19427520  0.58516287    -0.78200
O291        O  0.07018869  0.20408056  0.41806980    -0.81700
O292        O  0.11483730  0.25744160  0.53432859    -0.81100
O293        O  0.02154060  0.26636339  0.62400594    -0.79500
Eu294      Eu  0.05025212  0.26478484  0.44592636     2.39800
Eu295      Eu  0.93555871  0.25755637  0.55646894     2.39600
Eu296      Eu  0.99113313  0.33937548  0.50143664     2.38400
Eu297      Eu  0.99407838  0.18275930  0.50086701     2.39900
Eu298      Eu  0.04674050  0.26186783  0.55698515     2.39800
O299        O  0.99187072  0.22064057  0.55685803    -0.93900
O300        O  0.04774856  0.30242174  0.50175418    -0.92800
C301        C  0.13323482  0.25345485  0.50158177     1.01300
C302        C  0.98811842  0.26974436  0.64118177     1.00000
C303        C  0.06941989  0.36369571  0.43909563     0.99400
C304        C  0.06361708  0.16823579  0.42635895     1.01400
C305        C  0.92931407  0.15945859  0.57930637     1.00300
C306        C  0.91576175  0.35421255  0.56979110     0.99200
C307        C  0.06215784  0.36088125  0.56961285     0.99200
C308        C  0.06025707  0.16360369  0.57414097     1.01900
H309        H  0.98964124  0.31555838  0.57867786     0.29200
O310        O  0.99045698  0.29902612  0.55645738    -1.06000
H311        H  0.07109668  0.20760536  0.50129299     0.31300
O312        O  0.04870209  0.22385190  0.50120947    -1.08600
C313        C  0.79854014  0.50504525  0.69900037     0.85500
C314        C  0.82442893  0.47347322  0.68332591    -0.54800
C315        C  0.82458984  0.47087959  0.64390483     0.08400
C316        C  0.79844145  0.50011607  0.62313868     0.19300
C317        C  0.81394572  0.54151974  0.67713932    -0.55500
C318        C  0.81316514  0.53960037  0.63749339     0.08500
C319        C  0.75859042  0.49733398  0.68209760    -0.55000
C320        C  0.75784818  0.49429689  0.64275766     0.09100
H321        H  0.84151902  0.45491278  0.70172907     0.13600
H322        H  0.79848922  0.49781970  0.59104868    -0.00700
H323        H  0.82765637  0.56578949  0.69077273     0.13900
H324        H  0.73243710  0.49464534  0.70035538     0.13700
C325        C  0.19069113  0.51347208  0.69239859     0.85500
C326        C  0.17013997  0.54981317  0.67745674    -0.54800
C327        C  0.16024922  0.54872800  0.63924970     0.08400
C328        C  0.17398318  0.51227399  0.61832126     0.19300
C329        C  0.16444671  0.47927473  0.68098655    -0.55500
C330        C  0.15587911  0.47869309  0.64243070     0.08500
C331        C  0.22627218  0.51142945  0.66457817    -0.55000
C332        C  0.21782945  0.50953748  0.62602834     0.09100
H333        H  0.16385848  0.57456241  0.69503021     0.13600
H334        H  0.16650301  0.51126396  0.58712880    -0.00700
H335        H  0.15384678  0.45722841  0.70160362     0.13900
H336        H  0.25600324  0.51019359  0.67428725     0.13700
C337        C  0.79673033  0.01302895  0.30148026     0.85500
C338        C  0.80851192  0.97801336  0.32645394    -0.54800
C339        C  0.84693708  0.97778817  0.33538536     0.08400
C340        C  0.87054931  0.01219864  0.31831094     0.19300
C341        C  0.81122898  0.04864939  0.32393811    -0.55500
C342        C  0.84943974  0.04768514  0.33413581     0.08500
C343        C  0.82416971  0.01339911  0.26587422    -0.55000
C344        C  0.86253340  0.01195755  0.27439109     0.09100
H345        H  0.78813790  0.95539047  0.33624402     0.13600
H346        H  0.90186301  0.01079558  0.32509599    -0.00700
H347        H  0.79397380  0.07362525  0.32973499     0.13900
H348        H  0.81419598  0.01345320  0.23614912     0.13700
C349        C  0.79499668  0.00589752  0.70008506     0.85500
C350        C  0.81438007  0.04010885  0.67768607    -0.54800
C351        C  0.85352088  0.03692766  0.67185997     0.08400
C352        C  0.86972949  0.99888269  0.68802390     0.19300
C353        C  0.80602877  0.97105812  0.67511252    -0.55500
C354        C  0.84506376  0.96763526  0.66813218     0.08500
C355        C  0.81784432  0.00075557  0.73702093    -0.55000
C356        C  0.85659917  0.99609823  0.73133340     0.09100
H357        H  0.79855214  0.06381772  0.66523607     0.13600
H358        H  0.90153276  0.99650844  0.68310605    -0.00700
H359        H  0.78483035  0.95104329  0.66366597     0.13900
H360        H  0.80395519  0.99930164  0.76573747     0.13700
C361        C  0.78859374  0.50657136  0.30721111     0.85500
C362        C  0.81682973  0.54081138  0.31341604    -0.54800
C363        C  0.82820193  0.54491994  0.35096366     0.08400
C364        C  0.81128881  0.51361954  0.37903734     0.19300
C365        C  0.81052130  0.47139003  0.32355250    -0.55500
C366        C  0.82367165  0.47556626  0.36051028     0.08500
C367        C  0.75532281  0.51120796  0.33717595    -0.55000
C368        C  0.76701204  0.51559640  0.37445362     0.09100
H369        H  0.82747258  0.55958219  0.28978409     0.13600
H370        H  0.82048777  0.51694920  0.40953817    -0.00700
H371        H  0.81543506  0.44492166  0.30843635     0.13900
H372        H  0.72484997  0.51077110  0.32960993     0.13700
C373        C  0.18793476  0.51491618  0.30342838     0.85500
C374        C  0.17016971  0.47874254  0.32316328    -0.54800
C375        C  0.16712480  0.48010142  0.36270948     0.08400
C376        C  0.18273731  0.51841864  0.37935608     0.19300
C377        C  0.16146086  0.54727150  0.31827110    -0.55500
C378        C  0.15899279  0.54913986  0.35790658     0.08500
C379        C  0.22631436  0.52244671  0.32273918    -0.55000
C380        C  0.22454527  0.52373686  0.36211490     0.09100
H381        H  0.15868006  0.45475842  0.30681560     0.13600
H382        H  0.18055244  0.51994144  0.41152861    -0.00700
H383        H  0.14490065  0.56634951  0.30006549     0.13900
H384        H  0.25363180  0.52509013  0.30625041     0.13700
C385        C  0.18940340  0.01610433  0.30776115     0.85500
C386        C  0.17224752  0.04984823  0.32983909    -0.54800
C387        C  0.13250775  0.05187039  0.32910009     0.08400
C388        C  0.11355766  0.01866555  0.30615956     0.19300
C389        C  0.16856661  0.98045446  0.32612514    -0.55500
C390        C  0.12911701  0.98200913  0.32651277     0.08500
C391        C  0.17311600  0.01898676  0.26708340    -0.55000
C392        C  0.13379512  0.02112022  0.26527907     0.09100
H393        H  0.19031536  0.06968850  0.34590976     0.13600
H394        H  0.08154262  0.01886514  0.30474516    -0.00700
H395        H  0.18252760  0.95655278  0.34019672     0.13900
H396        H  0.19204684  0.02075066  0.24138850     0.13700
C397        C  0.18505160  0.00975431  0.69852241     0.85500
C398        C  0.17145416  0.97602099  0.67322134    -0.54800
C399        C  0.13314130  0.97711469  0.66277827     0.08400
C400        C  0.11175980  0.01205902  0.67946148     0.19300
C401        C  0.17414438  0.04645321  0.67546403    -0.55500
C402        C  0.13611017  0.04716128  0.66485407     0.08500
C403        C  0.15593730  0.00951463  0.73326412    -0.55000
C404        C  0.11794600  0.01072802  0.72344644     0.09100
H405        H  0.19085114  0.95353384  0.66395152     0.13600
H406        H  0.08056594  0.01341133  0.67226799    -0.00700
H407        H  0.19446384  0.07000807  0.66847997     0.13900
H408        H  0.16387074  0.01242782  0.76336261     0.13700
O409        O  0.73460744  0.63308196  0.96919081    -0.81200
O410        O  0.73807816  0.47397938  0.12499443    -0.82700
O411        O  0.67082388  0.58336550  0.08134801    -0.79700
O412        O  0.79799049  0.58992372  0.07967831    -0.78100
O413        O  0.84600495  0.55527452  0.05029636    -0.79900
O414        O  0.62524397  0.55651550  0.04187571    -0.80800
O415        O  0.74162463  0.53965337  0.12592479    -0.82200
O416        O  0.72896663  0.63227333  0.03548560    -0.82400
Eu417      Eu  0.73556898  0.56469491  0.05824675     2.39200
O418        O  0.77304857  0.50887761  0.05825517    -0.90000
O419        O  0.70015818  0.56615996  0.00062365    -0.93600
C420        C  0.72834362  0.64967407  0.00192135     1.01100
C421        C  0.74306476  0.50601683  0.14269242     1.00900
C422        C  0.63558390  0.57763253  0.07044247     1.00900
C423        C  0.83390373  0.58210066  0.07288534     0.98800
H424        H  0.67768635  0.50991852  0.07928836     0.28500
O425        O  0.69453307  0.51007900  0.05652178    -1.02300
H426        H  0.79456502  0.58861788  0.00465617     0.28500
O427        O  0.77849469  0.56556913  0.00393764    -1.04900
O428        O  0.71946754  0.38876061  0.03345664    -0.82100
O429        O  0.75729480  0.54592359  0.88028968    -0.81600
O430        O  0.62178546  0.46991776  0.04597991    -0.80100
O431        O  0.84345394  0.46330926  0.05112244    -0.83400
O432        O  0.85295922  0.55759421  0.96229467    -0.81300
O433        O  0.63141615  0.55724438  0.95184463    -0.79900
O434        O  0.67644971  0.43851964  0.91815876    -0.81500
O435        O  0.80230084  0.42882075  0.93026074    -0.83400
O436        O  0.62817885  0.46916161  0.95099294    -0.80100
O437        O  0.84959027  0.46363866  0.96067300    -0.82800
O438        O  0.66577964  0.43686625  0.08211541    -0.78500
O439        O  0.68176988  0.58592349  0.91656069    -0.78600
O440        O  0.80846717  0.59452559  0.93114820    -0.78200
O441        O  0.79320272  0.42628559  0.07768934    -0.81700
O442        O  0.72563077  0.38980308  0.96720458    -0.81100
O443        O  0.75538525  0.48027546  0.88182504    -0.79500
Eu444      Eu  0.73165305  0.45415885  0.05745033     2.39800
Eu445      Eu  0.74309707  0.56712904  0.94650362     2.39600
Eu446      Eu  0.65857692  0.51181223  0.99878941     2.38400
Eu447      Eu  0.81676583  0.50976683  0.00455489     2.39900
Eu448      Eu  0.73898645  0.45654659  0.94695454     2.39800
O449        O  0.78035490  0.51123035  0.94796287    -0.93900
O450        O  0.69557660  0.45589493  0.00051268    -0.92800
C451        C  0.71790443  0.37256660  0.99999918     1.01300
C452        C  0.76160012  0.51295753  0.86434475     1.00000
C453        C  0.63082035  0.44605309  0.07340625     0.99400
C454        C  0.82959311  0.43515410  0.07257357     1.01400
C455        C  0.84366619  0.58620049  0.93993200     1.00300
C456        C  0.64526981  0.57956781  0.92432127     0.99200
C457        C  0.64021995  0.44578577  0.92476107     0.99200
C458        C  0.83817917  0.43661980  0.93778242     1.01900
H459        H  0.68792894  0.51267691  0.92035586     0.29200
O460        O  0.70180980  0.51235126  0.94440711    -1.06000
H461        H  0.78960304  0.43123239  0.00403949     0.31300
O462        O  0.77504600  0.45465403  0.00372334    -1.08600
O463        O  0.25436952  0.62628788  0.96467354    -0.81200
O464        O  0.22529301  0.47178693  0.12182179    -0.82700
O465        O  0.17332137  0.58432822  0.06847766    -0.79700
O466        O  0.30149910  0.57708836  0.07996103    -0.78100
O467        O  0.34937728  0.54565398  0.04749493    -0.79900
O468        O  0.12601336  0.54844081  0.03933595    -0.80800
O469        O  0.23237821  0.53719815  0.11923981    -0.82200
O470        O  0.25086350  0.62446827  0.03104195    -0.82400
Eu471      Eu  0.23855738  0.55837225  0.05215308     2.39200
O472        O  0.27631313  0.50298001  0.05405386    -0.90000
O473        O  0.20133007  0.55967970  0.99612408    -0.93600
C474        C  0.25712432  0.64218576  0.99826682     1.01100
C475        C  0.22527718  0.50534211  0.13764840     1.00900
C476        C  0.13735633  0.57561211  0.06165294     1.00900
C477        C  0.33767925  0.56932527  0.07375689     0.98800
H478        H  0.17871225  0.50386908  0.07548318     0.28500
O479        O  0.19669682  0.50375159  0.05353864    -1.02300
H480        H  0.29948194  0.57990968  0.99778250     0.28500
O481        O  0.28125538  0.55843362  0.99764506    -1.04900
O482        O  0.24506325  0.38183347  0.03344516    -0.82100
O483        O  0.23692253  0.53885836  0.87409566    -0.81600
O484        O  0.12571528  0.45299898  0.03637243    -0.80100
O485        O  0.34605604  0.45847018  0.04673460    -0.83400
O486        O  0.35376871  0.54441205  0.95056344    -0.81300
O487        O  0.13337334  0.55238341  0.95185345    -0.79900
O488        O  0.17353066  0.42402550  0.92559939    -0.81500
O489        O  0.30292950  0.42910054  0.91776182    -0.83400
O490        O  0.12752386  0.46210860  0.95262117    -0.80100
O491        O  0.34980158  0.45724872  0.95496786    -0.82800
O492        O  0.17069473  0.41956007  0.06984706    -0.78500
O493        O  0.18214238  0.58807754  0.92203811    -0.78600
O494        O  0.30890794  0.57480098  0.91405875    -0.78200
O495        O  0.29649660  0.42985347  0.08322469    -0.81700
O496        O  0.24501832  0.38144607  0.96673470    -0.81100
O497        O  0.23526622  0.47280368  0.87391027    -0.79500
Eu498      Eu  0.23505552  0.44834454  0.05470697     2.39800
Eu499      Eu  0.24363039  0.55976973  0.94146728     2.39600
Eu500      Eu  0.16043012  0.50434423  0.99682722     2.38400
Eu501      Eu  0.31840697  0.50296072  0.99915760     2.39900
Eu502      Eu  0.23896073  0.44872369  0.94233010     2.39800
O503        O  0.28048912  0.50352534  0.94282046    -0.93900
O504        O  0.19809343  0.44860514  0.99802282    -0.92800
C505        C  0.24808890  0.36477860  0.00049671     1.01300
C506        C  0.23380368  0.50629932  0.85681534     1.00000
C507        C  0.13548948  0.42510034  0.05949092     0.99400
C508        C  0.33271814  0.43641924  0.07473732     1.01400
C509        C  0.34437027  0.56659011  0.92191272     1.00300
C510        C  0.14582023  0.58029996  0.92929736     0.99200
C511        C  0.13778194  0.43365213  0.93180731     0.99200
C512        C  0.33849798  0.43499535  0.92756987     1.01900
H513        H  0.18550370  0.50543983  0.91929362     0.29200
O514        O  0.20181957  0.50489275  0.94173231    -1.06000
H515        H  0.29299501  0.42713390  0.99959168     0.31300
O516        O  0.27638321  0.44914917  0.99903019    -1.08600
C517        C  0.99404779  0.70447993  0.80206680     0.85500
C518        C  0.03023374  0.68227045  0.81497023    -0.54800
C519        C  0.03407185  0.67941289  0.85446422     0.08400
C520        C  0.00189744  0.69977441  0.87742284     0.19300
C521        C  0.95967137  0.68465759  0.82359086    -0.55500
C522        C  0.96363747  0.68141462  0.86272030     0.08500
C523        C  0.99941806  0.74351051  0.82185914    -0.55000
C524        C  0.00402235  0.74179027  0.86117058     0.09100
H525        H  0.05127303  0.67012180  0.79523280     0.13600
H526        H  0.00554122  0.69694165  0.90917286    -0.00700
H527        H  0.93495049  0.67231473  0.80875906     0.13900
H528        H  0.00059414  0.77057470  0.80556095     0.13700
C529        C  0.98326362  0.31162883  0.80586537     0.85500
C530        C  0.94725062  0.33124383  0.82316144    -0.54800
C531        C  0.94848499  0.33619160  0.86254437     0.08400
C532        C  0.98568294  0.32089248  0.88117865     0.19300
C533        C  0.01693154  0.33812489  0.81930888    -0.55500
C534        C  0.01889963  0.34174795  0.85850077     0.08500
C535        C  0.98718609  0.27423445  0.82957628    -0.55000
C536        C  0.98943213  0.27893121  0.86864409     0.09100
H537        H  0.92411443  0.34247829  0.80557030     0.13600
H538        H  0.98670880  0.32459602  0.91313822    -0.00700
H539        H  0.03624477  0.35534089  0.80052101     0.13900
H540        H  0.98974376  0.24627442  0.81620312     0.13700
C541        C  0.49488110  0.70798581  0.80249624     0.85500
C542        C  0.45866878  0.68771223  0.82126757    -0.54800
C543        C  0.46194925  0.64870958  0.82612315     0.08400
C544        C  0.50102253  0.63328965  0.81072604     0.19300
C545        C  0.52898418  0.69568388  0.82754125    -0.55500
C546        C  0.53186191  0.65674360  0.83214864     0.08500
C547        C  0.50017681  0.68634402  0.76417714    -0.55000
C548        C  0.50456800  0.64778049  0.76819701     0.09100
H549        H  0.43250344  0.70236450  0.82983317     0.13600
H550        H  0.50399486  0.60166807  0.81440514    -0.00700
H551        H  0.54890433  0.71600123  0.84071633     0.13900
H552        H  0.49976519  0.70012451  0.73560073     0.13700
C553        C  0.48633643  0.70236709  0.19822562     0.85500
C554        C  0.51742623  0.68970658  0.16773921    -0.54800
C555        C  0.51750358  0.65099369  0.16172929     0.08400
C556        C  0.48754441  0.62801827  0.18649115     0.19300
C557        C  0.44795552  0.68512523  0.18270267    -0.55500
C558        C  0.44859594  0.64621185  0.17604266     0.08500
C559        C  0.49550968  0.67791583  0.23443113    -0.55000
C560        C  0.49651622  0.63932615  0.22837664     0.09100
H561        H  0.53887516  0.70810004  0.15288580     0.13600
H562        H  0.48837113  0.59646700  0.18184083    -0.00700
H563        H  0.42389080  0.70295009  0.17433815     0.13900
H564        H  0.50153057  0.69023670  0.26251128     0.13700
C565        C  0.98201962  0.31060067  0.19711100     0.85500
C566        C  0.01715402  0.32682550  0.17359921    -0.54800
C567        C  0.01178089  0.33073233  0.13449093     0.08400
C568        C  0.97117629  0.31591172  0.12204153     0.19300
C569        C  0.94785664  0.33626582  0.18598597    -0.55500
C570        C  0.94270343  0.33991295  0.14670549     0.08500
C571        C  0.97124634  0.27244574  0.17817746    -0.55000
C572        C  0.96609357  0.27446523  0.13923046     0.09100
H573        H  0.04364882  0.33642259  0.18738042     0.13600
H574        H  0.96692739  0.31769468  0.09019150    -0.00700
H575        H  0.92830128  0.34917346  0.20687787     0.13900
H576        H  0.96881167  0.24514070  0.19405572     0.13700
C577        C  0.99255604  0.70414576  0.19273317     0.85500
C578        C  0.95614703  0.68052494  0.18244699    -0.54800
C579        C  0.95351954  0.67290316  0.14392628     0.08400
C580        C  0.98715647  0.68958465  0.11842427     0.19300
C581        C  0.02653905  0.68036716  0.17554814    -0.55500
C582        C  0.02373543  0.67280815  0.13661876     0.08500
C583        C  0.99227088  0.74006060  0.16619217    -0.55000
C584        C  0.98915389  0.73272631  0.12759103     0.09100
H585        H  0.93466034  0.66998699  0.20390855     0.13600
H586        H  0.98395317  0.68330454  0.08713150    -0.00700
H587        H  0.05077621  0.66977077  0.19171905     0.13900
H588        H  0.99445094  0.76916332  0.17710367     0.13700
C589        C  0.49363228  0.31158610  0.80291387     0.85500
C590        C  0.53017187  0.32881238  0.82149190    -0.54800
C591        C  0.52919540  0.36776667  0.82623263     0.08400
C592        C  0.49163804  0.38618037  0.81204146     0.19300
C593        C  0.45975491  0.32538938  0.82981416    -0.55500
C594        C  0.45861994  0.36449332  0.83418795     0.08500
C595        C  0.48849809  0.33470778  0.76521358    -0.55000
C596        C  0.48685743  0.37334810  0.76989467     0.09100
H597        H  0.55381950  0.31142064  0.83182027     0.13600
H598        H  0.49153969  0.41782550  0.81585027    -0.00700
H599        H  0.43759706  0.30720425  0.84379288     0.13900
H600        H  0.48498813  0.32141631  0.73712612     0.13700
C601        C  0.48215103  0.30783310  0.19683024     0.85500
C602        C  0.44972057  0.32010846  0.16945758    -0.54800
C603        C  0.44589246  0.35902646  0.16616680     0.08400
C604        C  0.47479715  0.38234137  0.18986414     0.19300
C605        C  0.51890166  0.32953497  0.18076790    -0.55500
C606        C  0.51501924  0.36850635  0.17509544     0.08500
C607        C  0.47380622  0.32772590  0.23521311    -0.55000
C608        C  0.46881831  0.36618239  0.23188024     0.09100
H609        H  0.43123926  0.29985285  0.15435890     0.13600
H610        H  0.46995687  0.41357221  0.18701301    -0.00700
H611        H  0.54585340  0.31575781  0.17345211     0.13900
H612        H  0.47260605  0.31261465  0.26317622     0.13700
O613        O  0.56778708  0.41745321  0.45031353    -0.81200
O614        O  0.44835473  0.49059955  0.62125830    -0.82700
O615        O  0.58076966  0.45506529  0.57416437    -0.79700
O616        O  0.47590485  0.38495102  0.54005258    -0.78100
O617        O  0.42855005  0.39521026  0.49542490    -0.79900
O618        O  0.59963600  0.51793598  0.56324942    -0.80800
O619        O  0.49145070  0.44215335  0.61060200    -0.82200
O620        O  0.55288804  0.39863452  0.51295112    -0.82400
Eu621      Eu  0.51488279  0.44582611  0.54400679     2.39200
O622        O  0.45001237  0.46582169  0.53989340    -0.90000
O623        O  0.55558314  0.48588522  0.50501537    -0.93600
C624        C  0.56889598  0.39336460  0.47966290     1.01100
C625        C  0.46799889  0.46107720  0.63218077     1.00900
C626        C  0.60509916  0.48402980  0.57693464     1.00900
C627        C  0.44720222  0.37366770  0.51908904     0.98800
H628        H  0.51962780  0.50932741  0.59134172     0.28500
O629        O  0.51071549  0.50913420  0.56502438    -1.02300
H630        H  0.49624292  0.41631660  0.46941871     0.28500
O631        O  0.49549532  0.44222862  0.47897803    -1.04900
O632        O  0.41808080  0.59591759  0.55155072    -0.82100
O633        O  0.53388409  0.52334940  0.37977988    -0.81600
O634        O  0.54085632  0.57793992  0.59262888    -0.80100
O635        O  0.36933672  0.46611076  0.51168263    -0.83400
O636        O  0.44268660  0.43720151  0.40662809    -0.81300
O637        O  0.61439074  0.54519304  0.48951162    -0.79900
O638        O  0.50538699  0.62768501  0.46134341    -0.81500
O639        O  0.40254003  0.55524542  0.42477513    -0.83400
O640        O  0.55368938  0.61589610  0.50440160    -0.80100
O641        O  0.38403436  0.49222258  0.43568435    -0.82800
O642        O  0.47644908  0.56944417  0.60844502    -0.78500
O643        O  0.60465105  0.50214567  0.44084632    -0.78600
O644        O  0.50752755  0.44253557  0.39246566    -0.78200
O645        O  0.37867480  0.50810061  0.56152389    -0.81700
O646        O  0.42898297  0.61406797  0.48788567    -0.81100
O647        O  0.48952189  0.57068120  0.38962695    -0.79500
Eu648      Eu  0.44628957  0.53022813  0.56048852     2.39800
Eu649      Eu  0.53690606  0.48218081  0.44028595     2.39600
Eu650      Eu  0.55139242  0.54952847  0.52615209     2.38400
Eu651      Eu  0.43162780  0.46246628  0.47433568     2.39900
Eu652      Eu  0.46731573  0.56630811  0.45642216     2.39800
O653        O  0.47251571  0.50273797  0.43549371    -0.93900
O654        O  0.48722269  0.56985720  0.52113143    -0.92800
C655        C  0.41582779  0.61995910  0.52236685     1.01300
C656        C  0.51341399  0.55217512  0.36820259     1.00000
C657        C  0.51099980  0.58100913  0.61620366     0.99400
C658        C  0.35746559  0.48534237  0.54136963     1.01400
C659        C  0.47271674  0.43374055  0.38335169     1.00300
C660        C  0.62638530  0.52428098  0.46102366     0.99200
C661        C  0.53467928  0.63822460  0.48189592     0.99200
C662        C  0.37869792  0.52595013  0.42158805     1.01900
H663        H  0.54948630  0.56311435  0.44461215     0.29200
O664        O  0.53259541  0.54657082  0.46066397    -1.06000
H665        H  0.40072592  0.53557856  0.49500521     0.31300
O666        O  0.42694971  0.52639816  0.49599659    -1.08600
O667        O  0.07984091  0.93283779  0.05131631    -0.81200
O668        O  0.00561116  0.04692629  0.87715340    -0.82700
O669        O  0.04497885  0.91758041  0.93017834    -0.79700
O670        O  0.11466884  0.02332485  0.96101253    -0.78100
O671        O  0.09978954  0.07333395  0.00069402    -0.79900
O672        O  0.98189654  0.89734952  0.94089615    -0.80800
O673        O  0.05628232  0.00654010  0.88814232    -0.82200
O674        O  0.09946172  0.94590693  0.98854813    -0.82400
Eu675      Eu  0.05323913  0.98492056  0.95610854     2.39200
O676        O  0.03127384  0.04888062  0.95836098    -0.90000
O677        O  0.01282210  0.94631431  0.99678026    -0.93600
C678        C  0.10393723  0.92977341  0.02185535     1.01100
C679        C  0.03608714  0.02845887  0.86612584     1.00900
C680        C  0.01689984  0.89192708  0.92911776     1.00900
C681        C  0.12380999  0.05374158  0.98027131     0.98800
H682        H  0.98999384  0.97713735  0.90922424     0.28500
O683        O  0.98921377  0.98662462  0.93537788    -1.02300
H684        H  0.08166261  0.00613273  0.03025900     0.28500
O685        O  0.05554968  0.00654625  0.02063544    -1.04900
O686        O  0.90123438  0.08066626  0.94660846    -0.82100
O687        O  0.97721950  0.97227294  0.12250439    -0.81600
O688        O  0.92324809  0.95431666  0.90686645    -0.80100
O689        O  0.02861467  0.12966323  0.98407704    -0.83400
O690        O  0.06369762  0.06158929  0.08848541    -0.81300
O691        O  0.95715411  0.88510786  0.01354700    -0.79900
O692        O  0.86737443  0.99340324  0.03728631    -0.81500
O693        O  0.93745841  0.09671579  0.07474342    -0.83400
O694        O  0.88122440  0.94408228  0.99640896    -0.80100
O695        O  0.00008475  0.11619637  0.06112532    -0.82800
O696        O  0.92859740  0.01829332  0.89039832    -0.78500
O697        O  0.99619842  0.89992941  0.06419106    -0.78600
O698        O  0.05551330  0.99842561  0.10760593    -0.78200
O699        O  0.98746475  0.11715777  0.93416155    -0.81700
O700        O  0.88284142  0.07035315  0.01034027    -0.81100
O701        O  0.92576183  0.01133477  0.11063346    -0.79500
Eu702      Eu  0.96619261  0.05007381  0.93824718     2.39800
Eu703      Eu  0.01593142  0.96656896  0.06097272     2.39600
Eu704      Eu  0.94878728  0.94656589  0.97523792     2.38400
Eu705      Eu  0.03283534  0.06941883  0.02322806     2.39900
Eu706      Eu  0.92903020  0.03169137  0.04305035     2.39800
O707        O  0.99333692  0.02973774  0.06390489    -0.93900
O708        O  0.92646998  0.00984633  0.97860325    -0.92800
C709        C  0.87744565  0.08401488  0.97610586     1.01300
C710        C  0.94654518  0.99070357  0.13312577     1.00000
C711        C  0.92003798  0.98326666  0.88256890     0.99400
C712        C  0.00938023  0.13963315  0.95380184     1.01400
C713        C  0.06815944  0.03288350  0.11261073     1.00300
C714        C  0.97683692  0.87585649  0.04397466     0.99200
C715        C  0.85753793  0.96361596  0.01735059     0.99200
C716        C  0.96651993  0.12120579  0.07671677     1.01900
H717        H  0.93440909  0.95074859  0.05710112     0.29200
O718        O  0.95066752  0.96738196  0.04048781    -1.06000
H719        H  0.95871265  0.09719214  0.00249020     0.31300
O720        O  0.96843619  0.07134680  0.00214128    -1.08600
C721        C  0.46353603  0.38931242  0.26716139    -0.07100
C722        C  0.49445849  0.41332139  0.27645136    -0.18300
C723        C  0.49699847  0.42975069  0.31293212     0.10100
C724        C  0.46837548  0.42026347  0.34258870    -0.07100
C725        C  0.43605418  0.39748561  0.33250778    -0.18300
C726        C  0.43309168  0.38239268  0.29498751     0.10100
S727        S  0.53798734  0.46224729  0.31967284    -0.33300
S728        S  0.39001504  0.35440598  0.28457184    -0.33300
H729        H  0.39389655  0.35695019  0.24387491     0.28100
H730        H  0.55069069  0.46601567  0.28061740     0.28100
H731        H  0.51827306  0.41716907  0.25568392     0.18700
H732        H  0.41338599  0.39074528  0.35406753     0.18700
C733        C  0.46570931  0.44755442  0.67258332    -0.07100
C734        C  0.43910052  0.41766191  0.68190266    -0.18300
C735        C  0.44427167  0.39378189  0.71438601     0.10100
C736        C  0.47715059  0.39976089  0.73779340    -0.07100
C737        C  0.50202963  0.43129201  0.73006169    -0.18300
C738        C  0.49691793  0.45500858  0.69759360     0.10100
S739        S  0.40805435  0.35629786  0.72400808    -0.33300
S740        S  0.53375699  0.49163429  0.68795015    -0.33300
H741        H  0.51405294  0.51162448  0.65921613     0.28100
H742        H  0.41076597  0.35669836  0.76467106     0.28100
H743        H  0.41553508  0.41140657  0.66245193     0.18700
H744        H  0.52690163  0.43620925  0.74825103     0.18700
C745        C  0.98927150  0.76446924  0.09826686    -0.07100
C746        C  0.95542467  0.77144953  0.07729177    -0.18300
C747        C  0.95040876  0.80681377  0.05747989     0.10100
C748        C  0.98050587  0.83511520  0.05743600    -0.07100
C749        C  0.01585784  0.82578133  0.07487056    -0.18300
C750        C  0.02037219  0.79151699  0.09566502     0.10100
S751        S  0.90406752  0.81526665  0.03610990    -0.33300
S752        S  0.06593066  0.78567182  0.12011209    -0.33300
H753        H  0.06395007  0.74550959  0.12474377     0.28100
H754        H  0.90013960  0.85208404  0.05191866     0.28100
H755        H  0.93151264  0.75067342  0.07910530     0.18700
H756        H  0.03998053  0.84638538  0.07399591     0.18700
C757        C  0.96324398  0.15895400  0.09637855    -0.07100
C758        C  0.92945692  0.18084109  0.09382476    -0.18300
C759        C  0.92915440  0.21947926  0.10596099     0.10100
C760        C  0.96413560  0.23765327  0.11790086    -0.07100
C761        C  0.99767127  0.21578981  0.11967776    -0.18300
C762        C  0.99705934  0.17675662  0.11155122     0.10100
S763        S  0.88320442  0.24322190  0.10628359    -0.33300
S764        S  0.04000505  0.15078266  0.12414789    -0.33300
H765        H  0.01915000  0.11659137  0.13366142     0.28100
H766        H  0.89083721  0.26682451  0.13805647     0.28100
H767        H  0.90330751  0.16792518  0.08232561     0.18700
H768        H  0.02402724  0.22858291  0.13099743     0.18700
C769        C  0.50630951  0.61119442  0.25945369    -0.07100
C770        C  0.47781775  0.58372362  0.27057174    -0.18300
C771        C  0.48136961  0.56130192  0.30435397     0.10100
C772        C  0.51490591  0.56506143  0.32713172    -0.07100
C773        C  0.54497602  0.59030453  0.31432142    -0.18300
C774        C  0.54103253  0.61357052  0.28085959     0.10100
S775        S  0.43986069  0.53182900  0.31915675    -0.33300
S776        S  0.58050660  0.64691994  0.26863199    -0.33300
H777        H  0.57185408  0.65232624  0.22930916     0.28100
H778        H  0.46010900  0.50626221  0.34291554     0.28100
H779        H  0.45116932  0.58177349  0.25444044     0.18700
H780        H  0.57037757  0.59405251  0.33202810     0.18700
C781        C  0.51171283  0.62427847  0.73326635    -0.07100
C782        C  0.54134890  0.63644314  0.70656288    -0.18300
C783        C  0.54324024  0.62248973  0.66853344     0.10100
C784        C  0.51481956  0.59558040  0.65662204    -0.07100
C785        C  0.48712313  0.58144556  0.68474222    -0.18300
C786        C  0.48549216  0.59506863  0.72269736     0.10100
S787        S  0.58072386  0.64228090  0.63638505    -0.33300
S788        S  0.44780579  0.57693468  0.75601175    -0.33300
H789        H  0.43504226  0.54601888  0.73338347     0.28100
H790        H  0.55558406  0.64748036  0.60531416     0.28100
H791        H  0.56187208  0.65877555  0.71476774     0.18700
H792        H  0.46575221  0.55988800  0.67678926     0.18700
C793        C  0.99984059  0.24690346  0.89526119    -0.07100
C794        C  0.97617970  0.23877931  0.92820759    -0.18300
C795        C  0.98135982  0.20518805  0.95061179     0.10100
C796        C  0.01103514  0.17976989  0.94008063    -0.07100
C797        C  0.03677230  0.18954248  0.90936905    -0.18300
C798        C  0.03180932  0.22305661  0.88702860     0.10100
S799        S  0.94833428  0.19325906  0.99077996    -0.33300
S800        S  0.06615066  0.23435862  0.84777068    -0.33300
H801        H  0.09316671  0.20590700  0.85683745     0.28100
H802        H  0.92878427  0.22842664  0.99080550     0.28100
H803        H  0.95230752  0.25749218  0.93496506     0.18700
H804        H  0.05932723  0.16964811  0.90148367     0.18700
C805        C  0.01418275  0.77764497  0.88316653    -0.07100
C806        C  0.03722786  0.80689488  0.86407266    -0.18300
C807        C  0.04073197  0.84422168  0.87883752     0.10100
C808        C  0.02330455  0.85228870  0.91504098    -0.07100
C809        C  0.00456005  0.82190612  0.93634690    -0.18300
C810        C  0.99869900  0.78527492  0.92058695     0.10100
S811        S  0.06449761  0.88089402  0.84855704    -0.33300
S812        S  0.96767357  0.75084126  0.94710246    -0.33300
H813        H  0.95751606  0.77441396  0.97829084     0.28100
H814        H  0.03665610  0.90916031  0.85555771     0.28100
H815        H  0.05073070  0.80147443  0.83602656     0.18700
H816        H  0.99176927  0.82791475  0.96457296     0.18700
C817        C  0.10642977  0.41036692  0.91382723    -0.07100
C818        C  0.11704203  0.38483275  0.88443729    -0.18300
C819        C  0.08945560  0.36151287  0.86651018     0.10100
C820        C  0.04976265  0.36460144  0.87714042    -0.07100
C821        C  0.03892335  0.38958416  0.90663570    -0.18300
C822        C  0.06655524  0.41201602  0.92565255     0.10100
S823        S  0.10596168  0.32677129  0.83162563    -0.33300
S824        S  0.04946616  0.44123509  0.96533433    -0.33300
H825        H  0.01198311  0.42451903  0.96949407     0.28100
H826        H  0.14612174  0.33259506  0.83635500     0.28100
H827        H  0.14726512  0.38287918  0.87550273     0.18700
H828        H  0.00846434  0.39168188  0.91466892     0.18700
C829        C  0.10417711  0.39763467  0.07515194    -0.07100
C830        C  0.06499607  0.40604800  0.06858691    -0.18300
C831        C  0.03415928  0.38321842  0.08467235     0.10100
C832        C  0.04210553  0.35122707  0.10911967    -0.07100
C833        C  0.08112232  0.34153522  0.11396469    -0.18300
C834        C  0.11188817  0.36353857  0.09703511     0.10100
S835        S  0.98530294  0.39791408  0.07572003    -0.33300
S836        S  0.15994643  0.34582399  0.10517274    -0.33300
H837        H  0.17065220  0.34733282  0.06542983     0.28100
H838        H  0.99410322  0.42041478  0.04217123     0.28100
H839        H  0.05821119  0.43162360  0.05191291     0.18700
H840        H  0.08780294  0.31660294  0.13180966     0.18700
C841        C  0.05182007  0.64773022  0.11553453    -0.07100
C842        C  0.06157417  0.61248515  0.13313414    -0.18300
C843        C  0.08758581  0.58740163  0.11535261     0.10100
C844        C  0.10682104  0.59882785  0.08017799    -0.07100
C845        C  0.09679242  0.63358528  0.06203568    -0.18300
C846        C  0.06902400  0.65782940  0.07883284     0.10100
S847        S  0.09431732  0.54140016  0.13934782    -0.33300
S848        S  0.05758447  0.70209521  0.05368372    -0.33300
H849        H  0.08269234  0.69776307  0.02130335     0.28100
H850        H  0.10831544  0.52140799  0.10705918     0.28100
H851        H  0.04808141  0.60392045  0.16078849     0.18700
H852        H  0.11094708  0.64169018  0.03457466     0.18700
C853        C  0.11667036  0.60563097  0.91067412    -0.07100
C854        C  0.12884835  0.62984976  0.87915508    -0.18300
C855        C  0.10348599  0.65551911  0.86144643     0.10100
C856        C  0.06412863  0.65605935  0.87397797    -0.07100
C857        C  0.05217383  0.63271259  0.90590957    -0.18300
C858        C  0.07763074  0.60791953  0.92460331     0.10100
S859        S  0.12405784  0.68864148  0.82521319    -0.33300
S860        S  0.05898025  0.58041869  0.96646183    -0.33300
H861        H  0.02451138  0.60082066  0.97230438     0.28100
H862        H  0.09977969  0.71930006  0.83490077     0.28100
H863        H  0.15873148  0.62953167  0.86858880     0.18700
H864        H  0.02222642  0.63323655  0.91600161     0.18700
C865        C  0.36867691  0.41603447  0.90444044    -0.07100
C866        C  0.37874431  0.43222097  0.86809960    -0.18300
C867        C  0.40775191  0.41642237  0.84448030     0.10100
C868        C  0.42780756  0.38356002  0.85784814    -0.07100
C869        C  0.41745372  0.36749900  0.89458398    -0.18300
C870        C  0.38787470  0.38305717  0.91769416     0.10100
S871        S  0.41686848  0.43833855  0.79717606    -0.33300
S872        S  0.37560006  0.35937101  0.96346696    -0.33300
H873        H  0.33590181  0.36804087  0.96321839     0.28100
H874        H  0.38524440  0.46333418  0.79706933     0.28100
H875        H  0.36372167  0.45759158  0.85834035     0.18700
H876        H  0.43238036  0.34243947  0.90533766     0.18700
C877        C  0.37581322  0.58436268  0.89591860    -0.07100
C878        C  0.36460040  0.60754520  0.86415563    -0.18300
C879        C  0.39183845  0.62687662  0.83965095     0.10100
C880        C  0.43186226  0.62445551  0.84726329    -0.07100
C881        C  0.44350495  0.60016409  0.87766123    -0.18300
C882        C  0.41630773  0.57971123  0.90151635     0.10100
S883        S  0.37327420  0.65326977  0.79862158    -0.33300
S884        S  0.43587664  0.54855933  0.93827262    -0.33300
H885        H  0.41591935  0.51573313  0.92495322     0.28100
H886        H  0.40629855  0.64964565  0.77429769     0.28100
H887        H  0.33412007  0.61078531  0.85796308     0.18700
H888        H  0.47418386  0.59759636  0.88341582     0.18700
C889        C  0.41943159  0.62560833  0.15151516    -0.07100
C890        C  0.43321495  0.60426594  0.11988742    -0.18300
C891        C  0.40801959  0.58661561  0.09367162     0.10100
C892        C  0.36706267  0.58885349  0.09930070    -0.07100
C893        C  0.35342420  0.60993438  0.13148766    -0.18300
C894        C  0.37880716  0.62791668  0.15740609     0.10100
S895        S  0.43080923  0.56312818  0.05312492    -0.33300
S896        S  0.35736026  0.65179969  0.19845176    -0.33300
H897        H  0.38697042  0.64252724  0.22432288     0.28100
H898        H  0.40941070  0.58336338  0.02530419     0.28100
H899        H  0.46423088  0.60233482  0.11453572     0.18700
H900        H  0.32247468  0.61202868  0.13720695     0.18700
C901        C  0.41663828  0.37779740  0.14213611    -0.07100
C902        C  0.39051342  0.40246491  0.16048364    -0.18300
C903        C  0.36285910  0.42223175  0.13926302     0.10100
C904        C  0.36124747  0.41705466  0.09871600    -0.07100
C905        C  0.38755090  0.39267962  0.08032132    -0.18300
C906        C  0.41538700  0.37318642  0.10150140     0.10100
S907        S  0.33140485  0.45421431  0.16554488    -0.33300
S908        S  0.44911416  0.34410375  0.07471865    -0.33300
H909        H  0.48112883  0.35201283  0.09803964     0.28100
H910        H  0.32507894  0.48009687  0.13456690     0.28100
H911        H  0.39192177  0.40665180  0.19155822     0.18700
H912        H  0.38648141  0.38896007  0.04915245     0.18700
C913        C  0.54329860  0.39099658  0.14843893    -0.07100
C914        C  0.56252129  0.37059613  0.11861956    -0.18300
C915        C  0.59035792  0.38802258  0.09352343     0.10100
C916        C  0.59894588  0.42747249  0.09663589    -0.07100
C917        C  0.57888479  0.44882162  0.12452148    -0.18300
C918        C  0.55161588  0.43120036  0.15081067     0.10100
S919        S  0.61433489  0.35810120  0.05830665    -0.33300
S920        S  0.53036698  0.46065327  0.18801402    -0.33300
H921        H  0.54956624  0.49560371  0.17762070     0.28100
H922        H  0.62105864  0.38705718  0.02973531     0.28100
H923        H  0.55577121  0.34047810  0.11415561     0.18700
H924        H  0.58576278  0.47922183  0.12652475     0.18700
C925        C  0.54639954  0.63206346  0.13673829    -0.07100
C926        C  0.57098662  0.60592270  0.15473158    -0.18300
C927        C  0.60020125  0.58784277  0.13370418     0.10100
C928        C  0.60462373  0.59541861  0.09340638    -0.07100
C929        C  0.57922671  0.62059118  0.07495437    -0.18300
C930        C  0.55022929  0.63924410  0.09622841     0.10100
S931        S  0.63073246  0.55539178  0.16012494    -0.33300
S932        S  0.51929284  0.67136588  0.06982257    -0.33300
H933        H  0.48718798  0.66917787  0.09570312     0.28100
H934        H  0.63537935  0.52921568  0.12989712     0.28100
H935        H  0.56765756  0.59974072  0.18561504     0.18700
H936        H  0.58240531  0.62616908  0.04392554     0.18700
C937        C  0.61697754  0.59939958  0.90010802    -0.07100
C938        C  0.59117197  0.62461258  0.91808276    -0.18300
C939        C  0.56358603  0.64425903  0.89660477     0.10100
C940        C  0.56145008  0.63831963  0.85618570    -0.07100
C941        C  0.58715324  0.61297618  0.83823293    -0.18300
C942        C  0.61490622  0.59351011  0.85972973     0.10100
S943        S  0.53160019  0.67572586  0.92270461    -0.33300
S944        S  0.64595026  0.56064218  0.83436738    -0.33300
H945        H  0.64589339  0.53277585  0.86453048     0.28100
H946        H  0.49857908  0.66772994  0.90077290     0.28100
H947        H  0.59254672  0.62902761  0.94913721     0.18700
H948        H  0.58536461  0.60811349  0.80728270     0.18700
C949        C  0.55808923  0.38911499  0.84948474    -0.07100
C950        C  0.54483086  0.40622779  0.88374334    -0.18300
C951        C  0.57058477  0.42347262  0.90948542     0.10100
C952        C  0.61093447  0.42610617  0.89987555    -0.07100
C953        C  0.62391457  0.40935610  0.86495842    -0.18300
C954        C  0.59821653  0.39070082  0.84006539     0.10100
S955        S  0.54989827  0.43844143  0.95521363    -0.33300
S956        S  0.61856386  0.37008408  0.79657982    -0.33300
H957        H  0.58531651  0.37395870  0.77397159     0.28100
H958        H  0.57819018  0.42012206  0.97747498     0.28100
H959        H  0.51416208  0.40429044  0.89162492     0.18700
H960        H  0.65448728  0.41074886  0.85672753     0.18700
C961        C  0.85769451  0.41050723  0.09182173    -0.07100
C962        C  0.88038414  0.42594812  0.12119902    -0.18300
C963        C  0.90802935  0.40359943  0.14001792     0.10100
C964        C  0.91265499  0.36468554  0.12941855    -0.07100
C965        C  0.89037272  0.34983304  0.09933534    -0.18300
C966        C  0.86299932  0.37216943  0.08054808     0.10100
S967        S  0.93994187  0.42651159  0.17400462    -0.33300
S968        S  0.83679462  0.35068021  0.04136476    -0.33300
H969        H  0.83829934  0.38382487  0.01729845     0.28100
H970        H  0.92367610  0.46329684  0.17234614     0.28100
H971        H  0.87665398  0.45574105  0.12895068     0.18700
H972        H  0.89501117  0.32093725  0.08955222     0.18700
C973        C  0.92089638  0.36136372  0.88335561    -0.07100
C974        C  0.92763548  0.40135740  0.88200325    -0.18300
C975        C  0.90151673  0.42665340  0.89955141     0.10100
C976        C  0.86781234  0.41174180  0.91933980    -0.07100
C977        C  0.86148703  0.37154440  0.92099172    -0.18300
C978        C  0.88778608  0.34629567  0.90344350     0.10100
S979        S  0.91206987  0.47751280  0.89398991    -0.33300
S980        S  0.87889297  0.29492936  0.90632618    -0.33300
H981        H  0.84536430  0.29594228  0.93041329     0.28100
H982        H  0.87318044  0.48862625  0.89089004     0.28100
H983        H  0.95308996  0.41300311  0.86640733     0.18700
H984        H  0.83584944  0.35993841  0.93623323     0.18700
C985        C  0.93570761  0.65707500  0.88647860    -0.07100
C986        C  0.90383394  0.67439672  0.90451414    -0.18300
C987        C  0.87384288  0.65219481  0.92269599     0.10100
C988        C  0.87561376  0.61141009  0.92321665    -0.07100
C989        C  0.90795926  0.59418770  0.90570557    -0.18300
C990        C  0.93738090  0.61644339  0.88648356     0.10100
S991        S  0.83425980  0.67789735  0.94464099    -0.33300
S992        S  0.97543644  0.59265889  0.85968333    -0.33300
H993        H  0.96277561  0.55463831  0.86821786     0.28100
H994        H  0.82742085  0.65125306  0.97527072     0.28100
H995        H  0.90177551  0.70548101  0.90352799     0.18700
H996        H  0.90917082  0.56311522  0.90552991     0.18700
C997        C  0.92204270  0.64895311  0.12835431    -0.07100
C998        C  0.88947381  0.66728582  0.11387528    -0.18300
C999        C  0.86023241  0.64637020  0.09558080     0.10100
C1000       C  0.86350251  0.60595945  0.09196320    -0.07100
C1001       C  0.89608243  0.58774591  0.10686705    -0.18300
C1002       C  0.92506217  0.60867315  0.12542325     0.10100
S1003       S  0.82092956  0.67352858  0.07584068    -0.33300
S1004       S  0.96526786  0.58216553  0.14401986    -0.33300
H1005       H  0.97189175  0.60553192  0.17613082     0.28100
H1006       H  0.81682330  0.65121889  0.04255356     0.28100
H1007       H  0.88734470  0.69827759  0.11593544     0.18700
H1008       H  0.89873022  0.55682566  0.10453913     0.18700
C1009       C  0.08774567  0.01882927  0.75337094    -0.07100
C1010       C  0.09051557  0.05419857  0.77246876    -0.18300
C1011       C  0.07132390  0.05984777  0.80819742     0.10100
C1012       C  0.04802184  0.02966860  0.82479557    -0.07100
C1013       C  0.04273483  0.99555466  0.80410159    -0.18300
C1014       C  0.06246619  0.98969548  0.76877063     0.10100
S1015       S  0.08207081  0.10399535  0.83306810    -0.33300
S1016       S  0.05832852  0.94268903  0.74778374    -0.33300
H1017       H  0.06186523  0.95565967  0.70902748     0.28100
H1018       H  0.04917284  0.10343297  0.85789391     0.28100
H1019       H  0.11032487  0.07648033  0.76095631     0.18700
H1020       H  0.02522635  0.97215304  0.81700169     0.18700
C1021       C  0.11541179  0.02620727  0.22631996    -0.07100
C1022       C  0.13264680  0.00738703  0.19453798    -0.18300
C1023       C  0.12109635  0.01392830  0.15647760     0.10100
C1024       C  0.08932310  0.03764314  0.14911656    -0.07100
C1025       C  0.07145767  0.05631544  0.18046921    -0.18300
C1026       C  0.08485146  0.05187765  0.21877591     0.10100
S1027       S  0.14740818  0.98986671  0.11838357    -0.33300
S1028       S  0.06301298  0.07980318  0.25689796    -0.33300
H1029       H  0.03964651  0.10247836  0.23294014     0.28100
H1030       H  0.13730038  0.01487424  0.08784276     0.28100
H1031       H  0.15583581  0.98732074  0.19916911     0.18700
H1032       H  0.04590581  0.07298516  0.17528030     0.18700
C1033       C  0.21510016  0.50809164  0.17953187    -0.07100
C1034       C  0.22308784  0.47704116  0.20433239    -0.18300
C1035       C  0.21525409  0.47859939  0.24440311     0.10100
C1036       C  0.19531351  0.51075054  0.25989575    -0.07100
C1037       C  0.18831568  0.54199895  0.23495118    -0.18300
C1038       C  0.19835160  0.54145376  0.19565360     0.10100
S1039       S  0.23416053  0.44069476  0.27512864    -0.33300
S1040       S  0.18935380  0.58533007  0.16885966    -0.33300
H1041       H  0.17119838  0.56586610  0.13889166     0.28100
H1042       H  0.25160509  0.41893091  0.24567580     0.28100
H1043       H  0.23727516  0.45219539  0.19245796     0.18700
H1044       H  0.17668901  0.56834217  0.24594958     0.18700
C1045       C  0.26185882  0.52373022  0.38284341    -0.07100
C1046       C  0.28835991  0.49604787  0.37082413    -0.18300
C1047       C  0.32756837  0.49927281  0.37881070     0.10100
C1048       C  0.34110833  0.52948621  0.40240550    -0.07100
C1049       C  0.31448528  0.55663986  0.41593345    -0.18300
C1050       C  0.27500879  0.55439376  0.40579746     0.10100
S1051       S  0.35828973  0.46348498  0.35717114    -0.33300
S1052       S  0.24205478  0.59063334  0.42197276    -0.33300
H1053       H  0.27011951  0.61483497  0.43867705     0.28100
H1054       H  0.39405560  0.48145904  0.36410509     0.28100
H1055       H  0.27865578  0.47267864  0.35267891     0.18700
H1056       H  0.32436135  0.57872139  0.43543797     0.18700
C1057       C  0.77465372  0.50530532  0.26472772    -0.07100
C1058       C  0.78538880  0.47511800  0.24009702    -0.18300
C1059       C  0.77429184  0.47369782  0.20115067     0.10100
C1060       C  0.75256022  0.50400755  0.18490534    -0.07100
C1061       C  0.74181479  0.53429712  0.20900578    -0.18300
C1062       C  0.75206603  0.53523352  0.24836178     0.10100
S1063       S  0.79055736  0.43364410  0.17249933    -0.33300
S1064       S  0.73639743  0.57575398  0.27655290    -0.33300
H1065       H  0.70970092  0.59031923  0.24995366     0.28100
H1066       H  0.80674550  0.41166653  0.20255464     0.28100
H1067       H  0.80371588  0.45267332  0.25022389     0.18700
H1068       H  0.72537165  0.55762315  0.19676761     0.18700
C1069       C  0.66809197  0.52363184  0.45026634    -0.07100
C1070       C  0.68725915  0.55752060  0.43723551    -0.18300
C1071       C  0.72255827  0.55595315  0.41616359     0.10100
C1072       C  0.73827609  0.51988983  0.40676053    -0.07100
C1073       C  0.72095181  0.48638917  0.42295329    -0.18300
C1074       C  0.68663089  0.48797730  0.44530608     0.10100
S1075       S  0.74517738  0.60069122  0.40040081    -0.33300
S1076       S  0.66667456  0.44318536  0.46503563    -0.33300
H1077       H  0.64452353  0.46000214  0.49477699     0.28100
H1078       H  0.78306481  0.58771316  0.40595481     0.28100
H1079       H  0.67363981  0.58503921  0.44139489     0.18700
H1080       H  0.73315505  0.45863804  0.41650516     0.18700
C1081       C  0.88073167  0.98533530  0.76497598    -0.07100
C1082       C  0.86640227  0.95607272  0.79084036    -0.18300
C1083       C  0.87978571  0.95261601  0.82892510     0.10100
C1084       C  0.90902613  0.97818131  0.84129397    -0.07100
C1085       C  0.92688999  0.00378122  0.81342802    -0.18300
C1086       C  0.91275517  0.00806084  0.77575588     0.10100
S1087       S  0.85584279  0.91791764  0.86110061    -0.33300
S1088       S  0.93312105  0.04525800  0.74348457    -0.33300
H1089       H  0.96243024  0.05834210  0.76816492     0.28100
H1090       H  0.84976980  0.94480047  0.89047587     0.28100
H1091       H  0.84221092  0.93786663  0.78234430     0.18700
H1092       H  0.95068930  0.02237198  0.82200562     0.18700
C1093       C  0.89162924  0.00449228  0.24338081    -0.07100
C1094       C  0.88948646  0.96845890  0.22555129    -0.18300
C1095       C  0.90993308  0.96151488  0.19085453     0.10100
C1096       C  0.93434542  0.99077236  0.17429090    -0.07100
C1097       C  0.93851842  0.02589328  0.19352674    -0.18300
C1098       C  0.91661585  0.03354604  0.22716245     0.10100
S1099       S  0.89961595  0.91688485  0.16677499    -0.33300
S1100       S  0.91899969  0.08210442  0.24481345    -0.33300
H1101       H  0.88147819  0.08275906  0.26160116     0.28100
H1102       H  0.93499789  0.91529726  0.14582454     0.28100
H1103       H  0.86958218  0.94641085  0.23738618     0.18700
H1104       H  0.95620121  0.04891543  0.18010346     0.18700
C1105       C  0.22452678  0.50804142  0.81496777    -0.07100
C1106       C  0.19151352  0.52834548  0.80429680    -0.18300
C1107       C  0.17825299  0.52859662  0.76607563     0.10100
C1108       C  0.20080655  0.51156018  0.73598455    -0.07100
C1109       C  0.23274404  0.48929403  0.74763069    -0.18300
C1110       C  0.24494798  0.48771967  0.78627765     0.10100
S1111       S  0.12996525  0.54658748  0.76001112    -0.33300
S1112       S  0.28714519  0.45981708  0.79695582    -0.33300
H1113       H  0.30047445  0.48351031  0.82678207     0.28100
H1114       H  0.11870962  0.51759461  0.73441224     0.28100
H1115       H  0.17427084  0.54208916  0.82666659     0.18700
H1116       H  0.24851935  0.47247063  0.72662674     0.18700
C1117       C  0.24819215  0.49779043  0.59720809    -0.07100
C1118       C  0.27184651  0.46680069  0.60755305    -0.18300
C1119       C  0.30568765  0.45881506  0.58633278     0.10100
C1120       C  0.31654342  0.48225179  0.55403342    -0.07100
C1121       C  0.29131019  0.51084673  0.54130731    -0.18300
C1122       C  0.25692082  0.51861002  0.56235661     0.10100
S1123       S  0.33619405  0.42107511  0.60416637    -0.33300
S1124       S  0.22712628  0.55761974  0.54653021    -0.33300
H1125       H  0.24587044  0.56409067  0.51017729     0.28100
H1126       H  0.35287283  0.41246603  0.56772597     0.28100
H1127       H  0.26500562  0.44987308  0.63366913     0.18700
H1128       H  0.30021375  0.52914516  0.51672048     0.18700
C1129       C  0.79504390  0.50574658  0.74329251    -0.07100
C1130       C  0.80378524  0.53941561  0.76398874    -0.18300
C1131       C  0.79480116  0.54228270  0.80353719     0.10100
C1132       C  0.77481611  0.51153011  0.82321273    -0.07100
C1133       C  0.76803015  0.47722936  0.80332816    -0.18300
C1134       C  0.77866527  0.47352194  0.76429173     0.10100
S1135       S  0.81118826  0.58547223  0.82701082    -0.33300
S1136       S  0.76854197  0.42774940  0.74167963    -0.33300
H1137       H  0.76135717  0.40593914  0.77604036     0.28100
H1138       H  0.82750913  0.56506896  0.85811256     0.28100
H1139       H  0.81755833  0.56428817  0.75021264     0.18700
H1140       H  0.75338309  0.45314669  0.81819012     0.18700
C1141       C  0.71960350  0.49029510  0.62341250    -0.07100
C1142       C  0.68927430  0.51262951  0.63810233    -0.18300
C1143       C  0.65116948  0.50784720  0.62600459     0.10100
C1144       C  0.64237628  0.48073817  0.59730625    -0.07100
C1145       C  0.67279889  0.45904836  0.58145930    -0.18300
C1146       C  0.71131508  0.46333858  0.59429912     0.10100
S1147       S  0.61412085  0.53821396  0.64632649    -0.33300
S1148       S  0.74905269  0.43431442  0.57338763    -0.33300
H1149       H  0.72663187  0.41786653  0.54404244     0.28100
H1150       H  0.63652485  0.55461637  0.67568190     0.28100
H1151       H  0.69559361  0.53433837  0.65936196     0.18700
H1152       H  0.66695985  0.44011560  0.55786226     0.18700
C1153       C  0.99733061  0.28403397  0.31947347    -0.07100
C1154       C  0.98228793  0.31972521  0.30861832    -0.18300
C1155       C  0.98125667  0.33150367  0.26962095     0.10100
C1156       C  0.99122075  0.30516012  0.24025858    -0.07100
C1157       C  0.01104542  0.27168373  0.25173038    -0.18300
C1158       C  0.01379523  0.26059466  0.29080230     0.10100
S1159       S  0.97357123  0.38193016  0.26051686    -0.33300
S1160       S  0.03765910  0.21590827  0.30151718    -0.33300
H1161       H  0.02053231  0.20860471  0.33834223     0.28100
H1162       H  0.99896376  0.38446271  0.22792553     0.28100
H1163       H  0.97295053  0.33936303  0.33094028     0.18700
H1164       H  0.02340388  0.25307472  0.22998878     0.18700
C1165       C  0.98745233  0.28056687  0.68282648    -0.07100
C1166       C  0.95464057  0.27086361  0.70629053    -0.18300
C1167       C  0.95207069  0.28118899  0.74558547     0.10100
C1168       C  0.98274496  0.30291033  0.76216086    -0.11100
C1169       C  0.01565161  0.31201216  0.73827706    -0.18300
C1170       C  0.01813279  0.30207388  0.69921945     0.10100
S1171       S  0.91034188  0.26418742  0.77442545    -0.33300
S1172       S  0.06060562  0.31876858  0.67106410    -0.33300
H1173       H  0.08068991  0.33749629  0.70068475     0.28100
H1174       H  0.88838500  0.24987236  0.74366728     0.28100
H1175       H  0.93111634  0.25444734  0.69391429     0.18700
H1176       H  0.04096001  0.32563322  0.74979382     0.18700
C1177       C  0.89414097  0.38995384  0.41739123    -0.07100
C1178       C  0.90134020  0.39994669  0.37821797    -0.18300
C1179       C  0.88044018  0.42893819  0.35963091     0.10100
C1180       C  0.84948943  0.44703213  0.37977448    -0.07100
C1181       C  0.84303691  0.43764229  0.41931707    -0.18300
C1182       C  0.86523269  0.40989426  0.43845285     0.10100
S1183       S  0.89704611  0.44331041  0.31129192    -0.33300
S1184       S  0.85489474  0.40189527  0.48971817    -0.33300
H1185       H  0.87395230  0.36691954  0.49449398     0.28100
H1186       H  0.88981656  0.48268337  0.31604636     0.28100
H1187       H  0.92454310  0.38604467  0.36234176     0.18700
H1188       H  0.82008975  0.45163777  0.43544861     0.18700
C1189       C  0.89133029  0.38318118  0.58935696    -0.07100
C1190       C  0.90635338  0.42106528  0.59110127    -0.18300
C1191       C  0.88582309  0.45002825  0.60943855     0.10100
C1192       C  0.84796945  0.44193395  0.62419030    -0.07100
C1193       C  0.83295603  0.40431130  0.62340547    -0.18300
C1194       C  0.85409923  0.37474047  0.60668169     0.10100
S1195       S  0.91092978  0.49562161  0.61483342    -0.33300
S1196       S  0.83140074  0.32750993  0.60977209    -0.33300
H1197       H  0.84145060  0.31765701  0.57173662     0.28100
H1198       H  0.89163697  0.50645937  0.64915470     0.28100
H1199       H  0.93511432  0.42808589  0.57931513     0.18700
H1200       H  0.80449598  0.39785953  0.63638222     0.18700
C1201       C  0.08472372  0.39146263  0.58969607    -0.07100
C1202       C  0.12092838  0.38202472  0.60527817    -0.18300
C1203       C  0.14444817  0.40977132  0.62301690     0.10100
C1204       C  0.13195925  0.44802687  0.62492035    -0.07100
C1205       C  0.09641559  0.45781595  0.60900867    -0.18300
C1206       C  0.07221364  0.43005593  0.59252637     0.10100
S1207       S  0.19139245  0.39667321  0.64092052    -0.33300
S1208       S  0.02533012  0.44604772  0.57739481    -0.33300
H1209       H  0.00510875  0.41459397  0.59528279     0.28100
H1210       H  0.18665025  0.35667365  0.63662043     0.28100
H1211       H  0.13131779  0.35295668  0.60288326     0.18700
H1212       H  0.08699909  0.48729862  0.61014691     0.18700
C1213       C  0.09376203  0.39426733  0.42087304    -0.07100
C1214       C  0.12960903  0.40424553  0.43706903    -0.18300
C1215       C  0.15434324  0.43228268  0.41916017     0.10100
C1216       C  0.14275652  0.45081474  0.38454571    -0.07100
C1217       C  0.10665768  0.44052173  0.36884559    -0.18300
C1218       C  0.08219407  0.41271949  0.38653758     0.10100
S1219       S  0.20080920  0.44149760  0.44058438    -0.33300
S1220       S  0.03650740  0.40203963  0.36389205    -0.33300
H1221       H  0.03670799  0.36214796  0.37144969     0.28100
H1222       H  0.22118621  0.44649486  0.40492522     0.28100
H1223       H  0.13863051  0.38963158  0.46335946     0.18700
H1224       H  0.09726433  0.45429447  0.34227061     0.18700
C1225       C  0.07961496  0.13428937  0.59771206    -0.07100
C1226       C  0.11260941  0.11664483  0.58221261    -0.18300
C1227       C  0.13243103  0.08900249  0.60374343     0.10100
C1228       C  0.11899829  0.07872256  0.64179593    -0.07100
C1229       C  0.08613937  0.09671159  0.65730624    -0.18300
C1230       C  0.06634407  0.12430350  0.63574178     0.10100
S1231       S  0.17319517  0.06670941  0.58007914    -0.33300
S1232       S  0.02407621  0.14531539  0.65815447    -0.33300
H1233       H  0.00352234  0.15074497  0.62374124     0.28100
H1234       H  0.16572456  0.02966238  0.59594725     0.28100
H1235       H  0.12283463  0.12429233  0.55299404     0.18700
H1236       H  0.07546806  0.08877385  0.68629823     0.18700
C1237       C  0.87657672  0.06706894  0.64976997    -0.07100
C1238       C  0.87591013  0.10492956  0.66313136    -0.18300
C1239       C  0.89458474  0.13526178  0.64227771     0.10100
C1240       C  0.91270946  0.12828594  0.60560554    -0.07100
C1241       C  0.91420719  0.09008687  0.59300023    -0.18300
C1242       C  0.89684438  0.05955767  0.61469245     0.10100
S1243       S  0.89539125  0.18141094  0.66531644    -0.33300
S1244       S  0.89848029  0.01194560  0.59508747    -0.33300
H1245       H  0.92901868  0.01934204  0.56793405     0.28100
H1246       H  0.93508413  0.18857931  0.65663963     0.28100
H1247       H  0.86108896  0.11080713  0.69046689     0.18700
H1248       H  0.92797483  0.08408175  0.56524066     0.18700
C1249       C  0.90889058  0.13284576  0.40333854    -0.07100
C1250       C  0.86986209  0.12324526  0.41176484    -0.18300
C1251       C  0.84978927  0.09544644  0.39051426     0.10100
C1252       C  0.86873543  0.07748685  0.35862768    -0.07100
C1253       C  0.90798151  0.08728488  0.35057994    -0.18300
C1254       C  0.92807270  0.11476353  0.37214707     0.10100
S1255       S  0.80133584  0.08271650  0.40815896    -0.33300
S1256       S  0.97786565  0.12555138  0.35751837    -0.33300
H1257       H  0.98224018  0.16078287  0.37634458     0.28100
H1258       H  0.80416890  0.04312146  0.40128119     0.28100
H1259       H  0.85515149  0.13682718  0.43591350     0.18700
H1260       H  0.92334194  0.07380598  0.32691086     0.18700
C1261       C  0.08225591  0.13923080  0.40136494    -0.07100
C1262       C  0.06382257  0.10299008  0.39907885    -0.18300
C1263       C  0.07773150  0.07452257  0.37448927     0.10100
C1264       C  0.11169084  0.08214825  0.35129811    -0.07100
C1265       C  0.12949698  0.11898114  0.35278931    -0.18300
C1266       C  0.11605105  0.14698478  0.37813624     0.10100
S1267       S  0.05207395  0.02865086  0.37553196    -0.33300
S1268       S  0.14524147  0.19052793  0.38124817    -0.33300
H1269       H  0.14304557  0.19140263  0.42213071     0.28100
H1270       H  0.01971121  0.03909156  0.39838913     0.28100
H1271       H  0.03793959  0.09686893  0.41671836     0.18700
H1272       H  0.15527919  0.12563918  0.33507236     0.18700
C1273       C  0.99432223  0.73618784  0.31612182    -0.07100
C1274       C  0.96435596  0.74815894  0.29206710    -0.18300
C1275       C  0.96278455  0.73753241  0.25286304     0.10100
C1276       C  0.99273950  0.71485017  0.23615107    -0.07100
C1277       C  0.02244732  0.70260154  0.26076021    -0.18300
C1278       C  0.02307976  0.71217279  0.30013002     0.10100
S1279       S  0.92165142  0.75305873  0.22504683    -0.33300
S1280       S  0.05973585  0.68984392  0.32889578    -0.33300
H1281       H  0.03310709  0.67834438  0.35872193     0.28100
H1282       H  0.90300474  0.77411536  0.25432081     0.28100
H1283       H  0.94180070  0.76585823  0.30423442     0.18700
H1284       H  0.04513567  0.68432007  0.25040349     0.18700
C1285       C  0.98130250  0.73087275  0.67915490    -0.07100
C1286       C  0.00169165  0.69801766  0.69014198    -0.18300
C1287       C  0.00253567  0.68549906  0.72899468     0.10100
C1288       C  0.98660580  0.70901306  0.75841510    -0.07100
C1289       C  0.96213842  0.73898360  0.74654957    -0.18300
C1290       C  0.95948440  0.75027550  0.70754238     0.10100
S1291       S  0.01764419  0.63665348  0.73713115    -0.33300
S1292       S  0.92884974  0.79035336  0.69646531    -0.33300
H1293       H  0.95080508  0.80415668  0.66413252     0.28100
H1294       H  0.99228312  0.62959816  0.76923330     0.28100
H1295       H  0.01535833  0.68078881  0.66790742     0.18700
H1296       H  0.94602806  0.75494766  0.76809739     0.18700
C1297       C  0.09156938  0.63561535  0.41466550    -0.07100
C1298       C  0.07459189  0.59969593  0.40629646    -0.18300
C1299       C  0.09573064  0.57120463  0.38751851     0.10100
C1300       C  0.13520533  0.57814008  0.37777344    -0.07100
C1301       C  0.15227285  0.61397858  0.38558813    -0.18300
C1302       C  0.13122800  0.64265359  0.40444147     0.10100
S1303       S  0.07138591  0.52714231  0.37421137    -0.33300
S1304       S  0.15606308  0.68711568  0.41643220    -0.33300
H1305       H  0.19366966  0.67632725  0.40475454     0.28100
H1306       H  0.03544246  0.53406129  0.39278958     0.28100
H1307       H  0.04434965  0.59422698  0.41373397     0.18700
H1308       H  0.18211783  0.61959130  0.37639721     0.18700
C1309       C  0.08774056  0.63319922  0.58436204    -0.07100
C1310       C  0.07135441  0.60589983  0.61077916    -0.18300
C1311       C  0.09461244  0.57890101  0.62981988     0.10100
C1312       C  0.13496294  0.57813603  0.62122577    -0.07100
C1313       C  0.15144192  0.60616244  0.59572232    -0.18300
C1314       C  0.12840801  0.63350283  0.57718189     0.10100
S1315       S  0.07269611  0.54624985  0.66580593    -0.33300
S1316       S  0.15256886  0.66784397  0.54439565    -0.33300
H1317       H  0.12284497  0.66816282  0.51705397     0.28100
H1318       H  0.03521379  0.56161751  0.66544621     0.28100
H1319       H  0.04040145  0.60636395  0.61708176     0.18700
H1320       H  0.18253260  0.60713619  0.59058148     0.18700
C1321       C  0.83051628  0.57108404  0.61214907    -0.07100
C1322       C  0.85346807  0.56152229  0.57970075    -0.18300
C1323       C  0.87828783  0.58879726  0.56094586     0.10100
C1324       C  0.88080200  0.62691456  0.57506637    -0.07100
C1325       C  0.85466902  0.63714647  0.60498613    -0.18300
C1326       C  0.82891937  0.61024110  0.62261324     0.10100
S1327       S  0.90534406  0.57262171  0.51923138    -0.33300
S1328       S  0.79379004  0.62837106  0.65712305    -0.33300
H1329       H  0.76556047  0.59932493  0.65117257     0.28100
H1330       H  0.89622012  0.60489816  0.49615236     0.28100
H1331       H  0.85340790  0.53221673  0.56960440     0.18700
H1332       H  0.85412052  0.66649039  0.61506946     0.18700
C1333       C  0.90486248  0.62972962  0.40048505    -0.07100
C1334       C  0.87663079  0.64136889  0.37397807    -0.18300
C1335       C  0.85279355  0.61474263  0.35532773     0.10100
C1336       C  0.85600116  0.57499721  0.36417759    -0.07100
C1337       C  0.88613704  0.56312753  0.38808384    -0.18300
C1338       C  0.91154758  0.58970826  0.40473490     0.10100
S1339       S  0.81866261  0.63432092  0.32170713    -0.33300
S1340       S  0.95330624  0.57027952  0.42801121    -0.33300
H1341       H  0.97860623  0.59720329  0.40913703     0.28100
H1342       H  0.78844941  0.60824265  0.33149209     0.28100
H1343       H  0.87216527  0.67169822  0.36824524     0.18700
H1344       H  0.89057001  0.53264077  0.39308257     0.18700
C1345       C  0.10582777  0.95447226  0.35178206    -0.07100
C1346       C  0.07982172  0.92848464  0.33482016    -0.18300
C1347       C  0.06192953  0.89828152  0.35690471     0.10100
C1348       C  0.07008184  0.89398453  0.39689826    -0.07100
C1349       C  0.09477479  0.92084039  0.41407577    -0.18300
C1350       C  0.11283946  0.95067161  0.39220080     0.10100
S1351       S  0.02930749  0.86606648  0.33240815    -0.33300
S1352       S  0.14535793  0.98211335  0.41785582    -0.33300
H1353       H  0.13467694  0.01575784  0.39833971     0.28100
H1354       H  0.00390555  0.85939191  0.36447252     0.28100
H1355       H  0.07436486  0.93099797  0.30399326     0.18700
H1356       H  0.10074056  0.91803162  0.44479567     0.18700
C1357       C  0.90238196  0.88716105  0.39979871    -0.07100
C1358       C  0.89816007  0.92382546  0.41582952    -0.18300
C1359       C  0.87969504  0.95348439  0.39577540     0.10100
C1360       C  0.86471124  0.94672055  0.35870575    -0.07100
C1361       C  0.86820504  0.91021854  0.34260319    -0.18300
C1362       C  0.88719366  0.88045333  0.36230677     0.10100
S1363       S  0.87486876  0.99959286  0.41836616    -0.33300
S1364       S  0.89313092  0.83515626  0.33788900    -0.33300
H1365       H  0.87712141  0.84607487  0.30219812     0.28100
H1366       H  0.88474981  0.98766354  0.45609109     0.28100
H1367       H  0.90929739  0.92936539  0.44439571     0.18700
H1368       H  0.85680771  0.90547166  0.31396804     0.18700
C1369       C  0.86235855  0.93775438  0.64287286    -0.07100
C1370       C  0.89836806  0.92285454  0.65334592    -0.18300
C1371       C  0.91811223  0.89726672  0.62954825     0.10100
C1372       C  0.90030753  0.88364055  0.59582378    -0.07100
C1373       C  0.86421243  0.89778613  0.58531034    -0.18300
C1374       C  0.84570844  0.92570505  0.60750211     0.10100
S1375       S  0.96616078  0.88366927  0.64365235    -0.33300
S1376       S  0.80338680  0.94692683  0.58656850    -0.33300
H1377       H  0.81269817  0.98472241  0.59762982     0.28100
H1378       H  0.98157903  0.88040627  0.60581413     0.28100
H1379       H  0.91183716  0.93176618  0.67995303     0.18700
H1380       H  0.85112395  0.88813471  0.55872413     0.18700
C1381       C  0.07864271  0.88686241  0.59444667    -0.07100
C1382       C  0.07037009  0.92582243  0.58745612    -0.18300
C1383       C  0.08802636  0.95567077  0.60826540     0.10100
C1384       C  0.11425367  0.94690133  0.63820694    -0.07100
C1385       C  0.12297820  0.90806582  0.64500064    -0.18300
C1386       C  0.10652389  0.87834163  0.62320959     0.10100
S1387       S  0.07867110  0.00456916  0.59331338    -0.33300
S1388       S  0.12403915  0.83070310  0.63317340    -0.33300
H1389       H  0.13381606  0.82414814  0.59393638     0.28100
H1390       H  0.04491299  0.99668027  0.57233057     0.28100
H1391       H  0.05021535  0.93321601  0.56497897     0.18700
H1392       H  0.14319737  0.90064984  0.66748735     0.18700
C1393       C  0.24781782  0.80940972  0.51135142    -0.07100
C1394       C  0.22663843  0.82077940  0.47856060    -0.18300
C1395       C  0.18740397  0.81078198  0.47463490     0.10100
C1396       C  0.16832310  0.78793258  0.50387081    -0.07100
C1397       C  0.18830739  0.77885699  0.53786290    -0.18300
C1398       C  0.22717431  0.79011839  0.54245962     0.10100
S1399       S  0.16222875  0.82895801  0.43259205    -0.33300
S1400       S  0.25007810  0.77793124  0.58782781    -0.33300
H1401       H  0.21614430  0.76617845  0.60872703     0.28100
H1402       H  0.19296864  0.85118174  0.41564446     0.28100
H1403       H  0.24009051  0.83703668  0.45502936     0.18700
H1404       H  0.17347032  0.76240770  0.56095725     0.18700
C1405       C  0.36816882  0.73288080  0.51554306    -0.07100
C1406       C  0.39814503  0.72587164  0.54171864    -0.18300
C1407       C  0.41325967  0.68870127  0.54671785     0.10100
C1408       C  0.39682722  0.65743957  0.52639786    -0.07100
C1409       C  0.36725443  0.66473526  0.50016026    -0.18300
C1410       C  0.35402483  0.70179776  0.49334965     0.10100
S1411       S  0.45428227  0.68356018  0.57803848    -0.33300
S1412       S  0.32156212  0.70759350  0.45324354    -0.33300
H1413       H  0.33511404  0.74488745  0.44293844     0.28100
H1414       H  0.47196938  0.65341253  0.55806100     0.28100
H1415       H  0.41018495  0.74944294  0.55798511     0.18700
H1416       H  0.35621270  0.64151082  0.48256584     0.18700
C1417       C  0.25336192  0.21659907  0.49962668    -0.07100
C1418       C  0.22821429  0.20776831  0.53160919    -0.18300
C1419       C  0.18980561  0.22016621  0.53363319     0.10100
C1420       C  0.17484829  0.24218726  0.50253288    -0.07100
C1421       C  0.19955911  0.25135461  0.47049942    -0.18300
C1422       C  0.23849710  0.23966816  0.46894204     0.10100
S1423       S  0.16061668  0.20637399  0.57634307    -0.33300
S1424       S  0.26889595  0.25598337  0.42801878    -0.33300
H1425       H  0.23981462  0.27381509  0.40647617     0.28100
H1426       H  0.18925586  0.18750555  0.59756728     0.28100
H1427       H  0.23829338  0.19221158  0.55640908     0.18700
H1428       H  0.18839794  0.26842557  0.44678219     0.18700
C1429       C  0.39040909  0.26426529  0.51466263    -0.07100
C1430       C  0.41661211  0.27577797  0.48476571    -0.18300
C1431       C  0.43837002  0.31020364  0.48723033     0.10100
C1432       C  0.43443460  0.33300441  0.52058534    -0.07100
C1433       C  0.41101069  0.31968546  0.55196713    -0.18300
C1434       C  0.38889562  0.28557275  0.54939162     0.10100
S1435       S  0.46886878  0.32653316  0.44650217    -0.33300
S1436       S  0.35753313  0.27238400  0.59045021    -0.33300
H1437       H  0.35521304  0.23288768  0.58298925     0.28100
H1438       H  0.46669885  0.29217217  0.42557164     0.28100
H1439       H  0.41773966  0.25937490  0.45830238     0.18700
H1440       H  0.40782875  0.33727289  0.57750465     0.18700
C1441       C  0.70623973  0.33132077  0.99934712    -0.07100
C1442       C  0.71728307  0.30731972  0.02997697    -0.18300
C1443       C  0.70866473  0.26776705  0.03031595     0.10100
C1444       C  0.68915941  0.25097337  0.99839773    -0.07100
C1445       C  0.67657987  0.27574218  0.96865328    -0.18300
C1446       C  0.68415266  0.31536176  0.96923665     0.10100
S1447       S  0.72377113  0.23953305  0.07181140    -0.33300
S1448       S  0.66276948  0.34405079  0.93171084    -0.33300
H1449       H  0.64973209  0.37175266  0.95802409     0.28100
H1450       H  0.74299095  0.26908908  0.09168161     0.28100
H1451       H  0.73340218  0.31963686  0.05353892     0.18700
H1452       H  0.66077637  0.26499900  0.94436110     0.18700
C1453       C  0.76510384  0.13191943  0.98857539    -0.07100
C1454       C  0.77217120  0.10721200  0.95737133    -0.18300
C1455       C  0.80947545  0.09249404  0.95033193     0.10100
C1456       C  0.84081560  0.10496029  0.97318341    -0.07100
C1457       C  0.83367996  0.13094725  0.00308938    -0.18300
C1458       C  0.79629022  0.14257757  0.01236763     0.10100
S1459       S  0.81480993  0.05664052  0.91350119    -0.33300
S1460       S  0.79004531  0.16800317  0.05720427    -0.33300
H1461       H  0.75185704  0.15429110  0.06499340     0.28100
H1462       H  0.83977384  0.03306767  0.93472558     0.28100
H1463       H  0.74850318  0.09898029  0.93880421     0.18700
H1464       H  0.85710461  0.13936082  0.02195905     0.18700
C1465       C  0.28098349  0.24508040  0.00344732    -0.07100
C1466       C  0.24662138  0.25684077  0.98501197    -0.18300
C1467       C  0.23474940  0.29513701  0.98450644     0.10100
C1468       C  0.25795488  0.32352971  0.00169687    -0.07100
C1469       C  0.29327138  0.31292101  0.01804374    -0.18300
C1470       C  0.30591680  0.27459850  0.01755874     0.10100
S1471       S  0.18948654  0.30586976  0.96153337    -0.33300
S1472       S  0.35517079  0.26515751  0.03179769    -0.33300
H1473       H  0.36669736  0.30341735  0.03889479     0.28100
H1474       H  0.17943394  0.33644149  0.98578115     0.28100
H1475       H  0.22878587  0.23648286  0.96969678     0.18700
H1476       H  0.31180002  0.33524752  0.02974205     0.18700
C1477       C  0.23598182  0.10638670  0.99371723    -0.07100
C1478       C  0.22722703  0.09072646  0.95740724    -0.18300
C1479       C  0.19145868  0.07148584  0.95160786     0.10100
C1480       C  0.16475475  0.06680752  0.98321367    -0.07100
C1481       C  0.17567710  0.07917471  0.02011611    -0.18300
C1482       C  0.21013472  0.09954819  0.02558914     0.10100
S1483       S  0.18036647  0.05694757  0.90302643    -0.33300
S1484       S  0.21673342  0.11928106  0.07329026    -0.33300
H1485       H  0.25701243  0.12485871  0.07059787     0.28100
H1486       H  0.14130516  0.06802984  0.90478022     0.28100
H1487       H  0.24674793  0.09646598  0.93272806     0.18700
H1488       H  0.15584400  0.07503357  0.04486560     0.18700
C1489       C  0.80607453  0.78033656  0.49829726    -0.07100
C1490       C  0.78001785  0.76224848  0.52516026    -0.18300
C1491       C  0.74063675  0.77257979  0.52777295     0.10100
C1492       C  0.72609359  0.80098744  0.50183446    -0.07100
C1493       C  0.75328598  0.82043967  0.47675104    -0.18300
C1494       C  0.79248346  0.81082749  0.47507168     0.10100
S1495       S  0.70987628  0.74983940  0.56527892    -0.33300
S1496       S  0.82418769  0.84107162  0.44489650    -0.33300
H1497       H  0.85341710  0.84364085  0.47272812     0.28100
H1498       H  0.73691836  0.72317121  0.57872005     0.28100
H1499       H  0.79076097  0.74011648  0.54442920     0.18700
H1500       H  0.74529200  0.84470388  0.45907955     0.18700
C1501       C  0.58965229  0.74842069  0.49141240    -0.07100
C1502       C  0.57977089  0.73594979  0.45422821    -0.18300
C1503       C  0.55965934  0.70082062  0.44938853     0.10100
C1504       C  0.54763958  0.67890120  0.48268118    -0.07100
C1505       C  0.55484190  0.69345590  0.51973612    -0.18300
C1506       C  0.57699052  0.72698317  0.52444049     0.10100
S1507       S  0.55355696  0.68438736  0.40042867    -0.33300
S1508       S  0.59327523  0.73899987  0.57235470    -0.33300
H1509       H  0.56351459  0.71839877  0.59285548     0.28100
H1510       H  0.55795403  0.64499415  0.40875091     0.28100
H1511       H  0.59041240  0.75212440  0.42880709     0.18700
H1512       H  0.54592461  0.67656755  0.54522086     0.18700
C1513       C  0.69875101  0.77102905  0.99987462    -0.07100
C1514       C  0.68949607  0.74688985  0.96886466    -0.18300
C1515       C  0.69836717  0.70787415  0.96911134     0.10100
C1516       C  0.71836809  0.69133157  0.00057675    -0.07100
C1517       C  0.72763939  0.71493271  0.03183294    -0.18300
C1518       C  0.71828917  0.75423613  0.03196418     0.10100
S1519       S  0.67977569  0.68037093  0.92956093    -0.33300
S1520       S  0.73128188  0.78206717  0.07392053    -0.33300
H1521       H  0.75442944  0.75431725  0.09188807     0.28100
H1522       H  0.66344762  0.65198217  0.95495688     0.28100
H1523       H  0.67407219  0.75724263  0.94413996     0.18700
H1524       H  0.74213192  0.70243181  0.05643618     0.18700
C1525       C  0.74621329  0.90832787  0.00630438    -0.07100
C1526       C  0.75524043  0.92452696  0.04226845    -0.18300
C1527       C  0.79006595  0.94580439  0.04690145     0.10100
C1528       C  0.81624623  0.95080276  0.01485902    -0.07100
C1529       C  0.80500423  0.93741394  0.97841969    -0.18300
C1530       C  0.77108704  0.91578586  0.97386057     0.10100
S1531       S  0.80124023  0.96212903  0.09474861    -0.33300
S1532       S  0.76387411  0.89542290  0.92656020    -0.33300
H1533       H  0.72348471  0.89114437  0.92947426     0.28100
H1534       H  0.81000672  0.00008371  0.08205470     0.28100
H1535       H  0.73628722  0.91859769  0.06734126     0.18700
H1536       H  0.82429205  0.94175617  0.95339144     0.18700
C1537       C  0.29052259  0.76225278  0.00787269    -0.07100
C1538       C  0.30331110  0.74107867  0.97557471    -0.18300
C1539       C  0.29403866  0.70188902  0.97213209     0.10100
C1540       C  0.26964292  0.68319508  0.00048813    -0.07100
C1541       C  0.25921343  0.70337111  0.03398244    -0.18300
C1542       C  0.27025202  0.74191001  0.03865577     0.10100
S1543       S  0.31641987  0.67709799  0.93214427    -0.33300
S1544       S  0.25663793  0.76465526  0.08388451    -0.33300
H1545       H  0.24329128  0.73131058  0.10426421     0.28100
H1546       H  0.32703381  0.64531186  0.95522605     0.28100
H1547       H  0.32125616  0.75420076  0.95278159     0.18700
H1548       H  0.24184894  0.68893049  0.05669063     0.18700
C1549       C  0.21860108  0.88287774  0.02182728    -0.07100
C1550       C  0.19587371  0.88182974  0.98872720    -0.18300
C1551       C  0.15693173  0.89179382  0.99011425     0.10100
C1552       C  0.14044405  0.90757212  0.02433760    -0.07100
C1553       C  0.16252748  0.90720464  0.05814649    -0.18300
C1554       C  0.20094067  0.89374057  0.05755425     0.10100
S1555       S  0.12901635  0.88055278  0.94788681    -0.33300
S1556       S  0.22487326  0.88988420  0.10341917    -0.33300
H1557       H  0.24820257  0.85862636  0.09376030     0.28100
H1558       H  0.09477207  0.87125835  0.96950976     0.28100
H1559       H  0.20793005  0.87043191  0.96200495     0.18700
H1560       H  0.14979066  0.91701851  0.08508677     0.18700
C1561       C  0.23373452  0.01679885  0.30549750    -0.07100
C1562       C  0.25531696  0.98585835  0.32005541    -0.18300
C1563       C  0.29453029  0.98193544  0.31019642     0.10100
C1564       C  0.31295949  0.00906460  0.28452174    -0.07100
C1565       C  0.29271476  0.04193802  0.27333046    -0.18300
C1566       C  0.25402144  0.04685777  0.28454321     0.10100
S1567       S  0.31931291  0.94236683  0.33253558    -0.33300
S1568       S  0.23085076  0.09096176  0.26960114    -0.33300
H1569       H  0.26493352  0.11181955  0.25858116     0.28100
H1570       H  0.35230046  0.96481111  0.34145119     0.28100
H1571       H  0.24245827  0.96415645  0.33926450     0.18700
H1572       H  0.30705433  0.06375066  0.25492010     0.18700
C1573       C  0.75342468  0.01092402  0.29118501    -0.07100
C1574       C  0.72668773  0.03500959  0.30985415    -0.18300
C1575       C  0.68710871  0.03340955  0.30202480     0.10100
C1576       C  0.67295203  0.00843226  0.27352187    -0.07100
C1577       C  0.69866459  0.98281056  0.25625954    -0.18300
C1578       C  0.73830928  0.98292381  0.26536117     0.10100
S1579       S  0.65576530  0.06112074  0.33266046    -0.33300
S1580       S  0.76837722  0.94605481  0.24451914    -0.33300
H1581       H  0.73906922  0.92633353  0.22456179     0.28100
H1582       H  0.62623451  0.03255252  0.33614534     0.28100
H1583       H  0.73553060  0.05374560  0.33279141     0.18700
H1584       H  0.68749078  0.96242812  0.23577607     0.18700
C1585       C  0.41225584  0.90219948  0.38727816    -0.07100
C1586       C  0.38500731  0.87366782  0.37664793    -0.18300
C1587       C  0.36754291  0.84801465  0.40405927     0.10100
C1588       C  0.37613180  0.85128506  0.44386776    -0.07100
C1589       C  0.40469185  0.87815633  0.45456054    -0.18300
C1590       C  0.42337514  0.90288377  0.42689249     0.10100
S1591       S  0.33466953  0.81087063  0.38737959    -0.33300
S1592       S  0.46182814  0.93339357  0.44439755    -0.33300
H1593       H  0.48869521  0.92154524  0.41581485     0.28100
H1594       H  0.34626580  0.81321998  0.34791642     0.28100
H1595       H  0.37676021  0.87150480  0.34660295     0.18700
H1596       H  0.41214593  0.88039207  0.48486715     0.18700
C1597       C  0.61207197  0.86884975  0.43870722    -0.07100
C1598       C  0.58304766  0.85244849  0.41597381    -0.18300
C1599       C  0.56518718  0.87419702  0.38712018     0.10100
C1600       C  0.57639551  0.91312640  0.38134966    -0.07100
C1601       C  0.60466788  0.92988449  0.40464018    -0.18300
C1602       C  0.62268337  0.90813738  0.43333895     0.10100
S1603       S  0.52738230  0.85257569  0.35849730    -0.33300
S1604       S  0.65832968  0.93235640  0.46238245    -0.33300
H1605       H  0.65064544  0.91063701  0.49662632     0.28100
H1606       H  0.52935046  0.81521061  0.37468461     0.28100
H1607       H  0.57475489  0.82246781  0.42061869     0.18700
H1608       H  0.61282944  0.95999061  0.40029458     0.18700
C1609       C  0.40562493  0.10471165  0.37960663    -0.07100
C1610       C  0.39375746  0.14189538  0.36841811    -0.18300
C1611       C  0.37645999  0.16682556  0.39520354     0.10100
C1612       C  0.37056081  0.15456983  0.43409391    -0.07100
C1613       C  0.38315381  0.11813273  0.44575721    -0.18300
C1614       C  0.40004494  0.09297570  0.41917401     0.10100
S1615       S  0.36375451  0.21494982  0.38020351    -0.33300
S1616       S  0.41228098  0.04604953  0.43790275    -0.33300
H1617       H  0.39545798  0.02609646  0.40704809     0.28100
H1618       H  0.37629898  0.21231134  0.34116074     0.28100
H1619       H  0.39862227  0.15179389  0.33866595     0.18700
H1620       H  0.37883634  0.10874159  0.47578290     0.18700
C1621       C  0.49181551  0.18537125  0.22309905    -0.07100
C1622       C  0.45870811  0.20545832  0.23460240    -0.18300
C1623       C  0.45347576  0.24366883  0.22310681     0.10100
C1624       C  0.48395957  0.26415152  0.20269110    -0.07100
C1625       C  0.51607604  0.24315763  0.18918126    -0.18300
C1626       C  0.51973668  0.20405234  0.19824602     0.10100
S1627       S  0.40722229  0.26524852  0.23454010    -0.33300
S1628       S  0.55889665  0.17920187  0.17450628    -0.33300
H1629       H  0.53533037  0.14751356  0.16441642     0.28100
H1630       H  0.38794551  0.23203893  0.24982478     0.28100
H1631       H  0.43633932  0.19088805  0.25231675     0.18700
H1632       H  0.53797271  0.25609650  0.16998712     0.18700
C1633       C  0.48845773  0.82526712  0.22937917    -0.07100
C1634       C  0.46228506  0.79913835  0.24816749    -0.18300
C1635       C  0.45977150  0.76007854  0.23746850     0.10100
C1636       C  0.48491444  0.74588086  0.20771509    -0.07100
C1637       C  0.50967606  0.77302783  0.18801246    -0.18300
C1638       C  0.51130963  0.81186533  0.19805444     0.10100
S1639       S  0.42400300  0.72900369  0.26226295    -0.33300
S1640       S  0.54137755  0.84331070  0.16749073    -0.33300
H1641       H  0.51390205  0.87270828  0.16592664     0.28100
H1642       H  0.40402440  0.75802070  0.28193462     0.28100
H1643       H  0.44381159  0.80942103  0.27148604     0.18700
H1644       H  0.52756502  0.76518780  0.16355280     0.18700
C1645       C  0.64077562  0.12469928  0.05741091    -0.07100
C1646       C  0.65844673  0.10870895  0.09004787    -0.18300
C1647       C  0.63623273  0.08990299  0.11971155     0.10100
C1648       C  0.59517890  0.08742017  0.11705197    -0.07100
C1649       C  0.57776821  0.10264943  0.08382194    -0.18300
C1650       C  0.60000103  0.12155027  0.05428460     0.10100
S1651       S  0.66217235  0.06897773  0.15959019    -0.33300
S1652       S  0.57563477  0.14336241  0.01380070    -0.33300
H1653       H  0.54029353  0.12265585  0.01920267     0.28100
H1654       H  0.63699708  0.03681836  0.16484659     0.28100
H1655       H  0.68971158  0.11129614  0.09264683     0.18700
H1656       H  0.54641936  0.10115944  0.08177509     0.18700
C1657       C  0.62838013  0.87868211  0.06594404    -0.07100
C1658       C  0.64645039  0.88875329  0.10034357    -0.18300
C1659       C  0.62698853  0.91002608  0.12839286     0.10100
C1660       C  0.58787850  0.92024650  0.12260758    -0.07100
C1661       C  0.57000966  0.91023620  0.08780616    -0.18300
C1662       C  0.58989498  0.88973806  0.05940081     0.10100
S1663       S  0.65483066  0.92543632  0.16922220    -0.33300
S1664       S  0.56481845  0.87915935  0.01529508    -0.33300
H1665       H  0.58366567  0.84444533  0.00797427     0.28100
H1666       H  0.63889148  0.96238413  0.17048018     0.28100
H1667       H  0.67659713  0.88155158  0.10450644     0.18700
H1668       H  0.54011575  0.91785548  0.08289825     0.18700
C1669       C  0.39252248  0.91899578  0.12789255    -0.07100
C1670       C  0.40865337  0.88980458  0.10558665    -0.18300
C1671       C  0.38645327  0.87001713  0.07854215     0.10100
C1672       C  0.34681066  0.87924780  0.07402563    -0.07100
C1673       C  0.33123177  0.90927858  0.09563861    -0.18300
C1674       C  0.35341045  0.92903125  0.12264610     0.10100
S1675       S  0.41143102  0.83543610  0.04910485    -0.33300
S1676       S  0.32981736  0.96657589  0.14932990    -0.33300
H1677       H  0.36341765  0.98854480  0.15634551     0.28100
H1678       H  0.39210083  0.84452590  0.01467292     0.28100
H1679       H  0.43886310  0.88250984  0.10915335     0.18700
H1680       H  0.30154918  0.91762763  0.09136675     0.18700
C1681       C  0.39707974  0.09149128  0.12000495    -0.07100
C1682       C  0.36795333  0.07010536  0.10187439    -0.18300
C1683       C  0.34315279  0.08710992  0.07478080     0.10100
C1684       C  0.34793232  0.12691719  0.06481594    -0.07100
C1685       C  0.37781246  0.14796815  0.08282854    -0.18300
C1686       C  0.40235197  0.13074822  0.10984445     0.10100
S1687       S  0.30400679  0.05762007  0.05644249    -0.33300
S1688       S  0.44055925  0.16008316  0.12976706    -0.33300
H1689       H  0.46784401  0.13054390  0.13158420     0.28100
H1690       H  0.31765405  0.02173720  0.06916479     0.28100
H1691       H  0.36396426  0.04005125  0.10988802     0.18700
H1692       H  0.38290374  0.17803493  0.07507320     0.18700
C1693       C  0.73231406  0.21455182  0.49874855    -0.07100
C1694       C  0.74516203  0.25168451  0.50963964    -0.18300
C1695       C  0.78388802  0.26325239  0.50630352     0.10100
C1696       C  0.81197272  0.23587625  0.49804524    -0.07100
C1697       C  0.80045922  0.19755217  0.49190851    -0.18300
C1698       C  0.76104570  0.18635808  0.49258228     0.10100
S1699       S  0.79489381  0.31392250  0.51011347    -0.33300
S1700       S  0.75053788  0.13556355  0.48816831    -0.33300
H1701       H  0.71744745  0.13464905  0.51276771     0.28100
H1702       H  0.82760123  0.31424499  0.48492315     0.28100
H1703       H  0.72497635  0.27290866  0.51976996     0.18700
H1704       H  0.82240703  0.17608678  0.48725392     0.18700
C1705       C  0.61561799  0.15338666  0.43042306    -0.07100
C1706       C  0.58441517  0.12936447  0.44269969    -0.18300
C1707       C  0.56333834  0.10778077  0.41632405     0.10100
C1708       C  0.57471816  0.10864850  0.37640125    -0.07100
C1709       C  0.60480956  0.13442991  0.36402275    -0.18300
C1710       C  0.62519202  0.15690539  0.39040143     0.10100
S1711       S  0.52094978  0.08212887  0.43572415    -0.33300
S1712       S  0.66167909  0.19129868  0.37213351    -0.33300
H1713       H  0.65723469  0.18440163  0.33231374     0.28100
H1714       H  0.49671800  0.09603318  0.40645390     0.28100
H1715       H  0.57583517  0.12785579  0.47318248     0.18700
H1716       H  0.61285691  0.13673749  0.33348649     0.18700
C1717       C  0.60576893  0.27674959  0.48222301    -0.07100
C1718       C  0.61255184  0.30111415  0.51329641    -0.18300
C1719       C  0.60553790  0.34014181  0.51062791     0.10100
C1720       C  0.58797199  0.35575576  0.47709447    -0.07100
C1721       C  0.58043690  0.33136895  0.44588163    -0.18300
C1722       C  0.58975528  0.29208564  0.44791802     0.10100
S1723       S  0.62102847  0.36836532  0.55118463    -0.33300
S1724       S  0.58184773  0.26344842  0.40565676    -0.33300
H1725       H  0.57531269  0.22857838  0.42616483     0.28100
H1726       H  0.62349108  0.40297772  0.52986423     0.28100
H1727       H  0.62681746  0.29010494  0.53888728     0.18700
H1728       H  0.56620786  0.34258940  0.42042756     0.18700
C1729       C  0.22843597  0.00821147  0.70956953    -0.07100
C1730       C  0.23916247  0.99667314  0.74753244    -0.18300
C1731       C  0.27785914  0.99773073  0.75949908     0.10100
C1732       C  0.30742894  0.01055218  0.73309339    -0.07100
C1733       C  0.29764586  0.01999176  0.69484113    -0.18300
C1734       C  0.25908030  0.01735665  0.68235273     0.10100
S1735       S  0.28678403  0.98219682  0.80893796    -0.33300
S1736       S  0.25039266  0.02353333  0.63106939    -0.33300
H1737       H  0.28946942  0.02343932  0.61820724     0.28100
H1738       H  0.32639748  0.99196266  0.81063286     0.28100
H1739       H  0.21783038  0.98531831  0.76834846     0.18700
H1740       H  0.32076380  0.02810678  0.67421751     0.18700
C1741       C  0.67203855  0.00774225  0.73357999    -0.07100
C1742       C  0.69320063  0.04260368  0.72892201    -0.18300
C1743       C  0.73301703  0.04336992  0.72005246     0.10100
C1744       C  0.75179862  0.00859048  0.71039251    -0.07100
C1745       C  0.73109950  0.97378629  0.71788639    -0.18300
C1746       C  0.69231018  0.97282514  0.73011707     0.10100
S1747       S  0.75758427  0.08914679  0.72636140    -0.33300
S1748       S  0.67207507  0.92581685  0.74283400    -0.33300
H1749       H  0.65864747  0.93729903  0.77973935     0.28100
H1750       H  0.78924017  0.07358841  0.74587270     0.28100
H1751       H  0.67907509  0.06971301  0.73391887     0.18700
H1752       H  0.74574064  0.94658401  0.71630336     0.18700
C1753       C  0.40592301  0.10294023  0.61938153    -0.07100
C1754       C  0.37209847  0.08784859  0.60312231    -0.18300
C1755       C  0.35250991  0.10849794  0.57461372     0.10100
C1756       C  0.36680855  0.14548629  0.56264200    -0.07100
C1757       C  0.40073892  0.16035237  0.57921833    -0.18300
C1758       C  0.42053049  0.13940128  0.60715591     0.10100
S1759       S  0.31053845  0.08527534  0.55414617    -0.33300
S1760       S  0.46411150  0.16065761  0.62636853    -0.33300
H1761       H  0.48455603  0.12607793  0.62759908     0.28100
H1762       H  0.31667383  0.10059711  0.51637161     0.28100
H1763       H  0.36104294  0.05968266  0.61254865     0.18700
H1764       H  0.41194533  0.18865656  0.57048098     0.18700
C1765       C  0.57490991  0.11065954  0.61686163    -0.07100
C1766       C  0.57523059  0.15082252  0.62182236    -0.18300
C1767       C  0.59076537  0.17622111  0.59296713     0.10100
C1768       C  0.60740259  0.16149714  0.55866778    -0.07100
C1769       C  0.60689993  0.12151711  0.55347179    -0.18300
C1770       C  0.59097549  0.09605955  0.58199492     0.10100
S1771       S  0.58883681  0.22712751  0.60136115    -0.33300
S1772       S  0.59441883  0.04524668  0.57314994    -0.33300
H1773       H  0.60270572  0.03522551  0.61180567     0.28100
H1774       H  0.58148609  0.23691813  0.56244898     0.28100
H1775       H  0.56257785  0.16258024  0.64806757     0.18700
H1776       H  0.62037518  0.10993505  0.52754147     0.18700
C1777       C  0.60713489  0.86054560  0.56738846    -0.07100
C1778       C  0.62890788  0.89129557  0.58283204    -0.18300
C1779       C  0.61296583  0.91629073  0.61008691     0.10100
C1780       C  0.57371992  0.91134050  0.62199623    -0.07100
C1781       C  0.55145268  0.88144466  0.60645268    -0.18300
C1782       C  0.56749487  0.85583219  0.57960976     0.10100
S1783       S  0.64482341  0.95347945  0.62840046    -0.33300
S1784       S  0.53694338  0.81637506  0.56411250    -0.33300
H1785       H  0.50126793  0.83023715  0.57818874     0.28100
H1786       H  0.61715613  0.97537327  0.64808061     0.28100
H1787       H  0.65877425  0.89646532  0.57327250     0.18700
H1788       H  0.52149745  0.87758987  0.61637225     0.18700
C1789       C  0.40498787  0.90937553  0.62566636    -0.07100
C1790       C  0.40207313  0.86963173  0.63392544    -0.18300
C1791       C  0.38519430  0.84417714  0.60784610     0.10100
C1792       C  0.37115897  0.85862162  0.57239449    -0.07100
C1793       C  0.37457709  0.89817402  0.56376366    -0.18300
C1794       C  0.39109828  0.92371501  0.58997664     0.10100
S1795       S  0.38254663  0.79389403  0.62183136    -0.33300
S1796       S  0.39181865  0.97425764  0.57686564    -0.33300
H1797       H  0.38262558  0.98692132  0.61452320     0.28100
H1798       H  0.34960364  0.78391911  0.60060155     0.28100
H1799       H  0.41304315  0.85826556  0.66100555     0.18700
H1800       H  0.36319740  0.90938291  0.53679970     0.18700
C1801       C  0.49392458  0.18970610  0.77162995    -0.07100
C1802       C  0.52344405  0.21493381  0.75740388    -0.18300
C1803       C  0.52491742  0.25384739  0.76821610     0.10100
C1804       C  0.49606042  0.26831703  0.79425478    -0.07100
C1805       C  0.46777396  0.24206455  0.80953125    -0.18300
C1806       C  0.46652508  0.20362562  0.79879368     0.10100
S1807       S  0.56370179  0.28446735  0.74781132    -0.33300
S1808       S  0.43035820  0.17340427  0.82321067    -0.33300
H1809       H  0.45759327  0.14540222  0.83293753     0.28100
H1810       H  0.57864529  0.25808572  0.72108548     0.28100
H1811       H  0.54519791  0.20412589  0.73741472     0.18700
H1812       H  0.44603635  0.25043486  0.83039338     0.18700
C1813       C  0.48728650  0.82963429  0.77165990    -0.07100
C1814       C  0.46679488  0.81537813  0.80475178    -0.18300
C1815       C  0.47104290  0.77736113  0.81807284     0.10100
C1816       C  0.49390469  0.75174989  0.79585760    -0.07100
C1817       C  0.51726892  0.76772927  0.76513407    -0.18300
C1818       C  0.51330915  0.80553332  0.75207155     0.10100
S1819       S  0.45169698  0.76629725  0.86624070    -0.33300
S1820       S  0.54168470  0.82079322  0.70950450    -0.33300
H1821       H  0.51377943  0.84592891  0.69484629     0.28100
H1822       H  0.48131682  0.74090667  0.87611687     0.28100
H1823       H  0.44949606  0.83482438  0.82194197     0.18700
H1824       H  0.53833041  0.75031634  0.75008980     0.18700
C1825       C  0.39324457  0.09759243  0.87772108    -0.07100
C1826       C  0.41132337  0.10931587  0.91187558    -0.18300
C1827       C  0.39156060  0.13102875  0.93948146     0.10100
C1828       C  0.35266302  0.14083131  0.93330353    -0.07100
C1829       C  0.33467163  0.12998065  0.89906695    -0.18300
C1830       C  0.35429413  0.10830006  0.87134682     0.10100
S1831       S  0.41736133  0.14509779  0.98215589    -0.33300
S1832       S  0.32689899  0.09329534  0.82999412    -0.33300
H1833       H  0.34201514  0.05604589  0.82974980     0.28100
H1834       H  0.39696078  0.17915578  0.98842767     0.28100
H1835       H  0.44132839  0.10215203  0.91682453     0.18700
H1836       H  0.30445206  0.13682558  0.89482444     0.18700
C1837       C  0.33581820  0.89230273  0.94532859    -0.07100
C1838       C  0.32958903  0.88362460  0.90619746    -0.18300
C1839       C  0.35256300  0.89996816  0.87572186     0.10100
C1840       C  0.38281727  0.92709298  0.88371563    -0.07100
C1841       C  0.38741087  0.93753347  0.92271651    -0.18300
C1842       C  0.36470262  0.92062591  0.95336030     0.10100
S1843       S  0.34190684  0.88324680  0.82776997    -0.33300
S1844       S  0.37484381  0.93490270  0.00224421    -0.33300
H1845       H  0.40752154  0.95878247  0.99372562     0.28100
H1846       H  0.37949284  0.86898800  0.82156430     0.28100
H1847       H  0.30725401  0.86256211  0.89925529     0.18700
H1848       H  0.40947630  0.95884088  0.92944993     0.18700
C1849       C  0.63343962  0.88876236  0.93504013    -0.07100
C1850       C  0.60485751  0.86681822  0.91598921    -0.18300
C1851       C  0.58095412  0.88305798  0.88796914     0.10100
C1852       C  0.58405563  0.92284374  0.87952844    -0.07100
C1853       C  0.61195232  0.94512617  0.89840164    -0.18300
C1854       C  0.63729136  0.92866681  0.92523610     0.10100
S1855       S  0.54753848  0.85109115  0.86392063    -0.33300
S1856       S  0.67622715  0.95888017  0.94288260    -0.33300
H1857       H  0.66244286  0.99440231  0.92928701     0.28100
H1858       H  0.52052178  0.87876793  0.85295624     0.28100
H1859       H  0.60046772  0.83656753  0.92318907     0.18700
H1860       H  0.61493616  0.97541060  0.89063296     0.18700
C1861       C  0.59487229  0.08926766  0.87638135    -0.07100
C1862       C  0.62113820  0.11873091  0.86338696    -0.18300
C1863       C  0.64637320  0.13725996  0.88867736     0.10100
C1864       C  0.64528006  0.12711778  0.92859104    -0.07100
C1865       C  0.62137124  0.09597755  0.94127558    -0.18300
C1866       C  0.59599150  0.07711985  0.91604888     0.10100
S1867       S  0.68025014  0.17260231  0.86775241    -0.33300
S1868       S  0.56542759  0.03817042  0.93585725    -0.33300
H1869       H  0.58170337  0.03605573  0.97294876     0.28100
H1870       H  0.70992917  0.16536888  0.89421583     0.28100
H1871       H  0.62211121  0.12781312  0.83309261     0.18700
H1872       H  0.62135441  0.08738608  0.97163356     0.18700
loop_ 
_geom_bond_atom_site_label_1 
_geom_bond_atom_site_label_2 
_geom_bond_distance 
_geom_bond_site_symmetry_2 
_ccdc_geom_bond_type 
O1           C12   1.293       .  A
O1          Eu37   2.474       .  S
O2           C13   1.294       .  A
O2          Eu36   2.474       .  S
O3           C14   1.291       .  A
O3           Eu9   2.452       .  S
O4           C15   1.292       .  A
O4           Eu9   2.462       .  S
O5           C15   1.293       .  A
O5          Eu39   2.470       .  S
O6           C14   1.284   1_565  A
O6          Eu38   2.432       .  S
O7           C13   1.293       .  A
O7           Eu9   2.472       .  S
O8           C12   1.292       .  A
O8           Eu9   2.459       .  S
Eu9          O19   2.359       .  S
Eu9          O11   2.352       .  S
Eu9          O10   2.348       .  S
Eu9          O17   2.361       .  S
O10         Eu39   2.345       .  S
O10         Eu36   2.357       .  S
O11         Eu37   2.355       .  S
O11         Eu38   2.340   1_545  S
C12        C1861   1.501       .  S
C13        C1765   1.491       .  S
C14        C1741   1.485       .  S
C15        C1801   1.486       .  S
H16          O17   0.965       .  S
O17         Eu38   2.358   1_545  S
O17         Eu36   2.340       .  S
H18          O19   0.965       .  S
O19         Eu37   2.353       .  S
O19         Eu39   2.361       .  S
O20          C43   1.291       .  A
O20         Eu36   2.459   1_565  S
O21          C44   1.298       .  A
O21         Eu37   2.493   1_565  S
O22          C45   1.291       .  A
O22         Eu38   2.463       .  S
O23          C46   1.289       .  A
O23         Eu39   2.453       .  S
O24          C47   1.288       .  A
O24         Eu39   2.438       .  S
O25          C48   1.291       .  A
O25         Eu38   2.458       .  S
O26          C49   1.292       .  A
O26         Eu40   2.469       .  S
O27          C50   1.292   1_565  A
O27         Eu40   2.466       .  S
O28          C49   1.287       .  A
O28         Eu38   2.430       .  S
O29          C50   1.293       .  A
O29         Eu39   2.471       .  S
O30          C45   1.290       .  A
O30         Eu36   2.459   1_565  S
O31          C48   1.293       .  A
O31         Eu37   2.471   1_565  S
O32          C47   1.293       .  A
O32         Eu37   2.460       .  S
O33          C46   1.288       .  A
O33         Eu36   2.445       .  S
O34          C43   1.290       .  A
O34         Eu40   2.448       .  S
O35          C44   1.288       .  A
O35         Eu40   2.453       .  S
Eu36         O54   2.346       .  S
Eu36         O42   2.354   1_545  S
Eu37         O41   2.357       .  S
Eu37         O52   2.340   1_545  S
Eu38         O52   2.361       .  S
Eu38         O42   2.337       .  S
Eu39         O41   2.351       .  S
Eu39         O54   2.352       .  S
Eu40         O41   2.343   1_565  S
Eu40         O52   2.355       .  S
Eu40         O54   2.358   1_565  S
Eu40         O42   2.352       .  S
C43        C1789   1.476       .  S
C44        C1840   1.510       .  S
C45        C1780   1.472       .  S
C46        C1753   1.460       .  S
C47        C1825   1.479       .  S
C48        C1852   1.475       .  S
C49        C1813   1.469       .  S
C50        C1732   1.476       .  S
H51          O52   0.965       .  S
H53          O54   0.965       .  S
C55          C56   1.536       .  S
C55          C61   1.533       .  S
C55          C59   1.540       .  S
C55        C1693   1.534       .  S
C56          H63   1.086       .  S
C56          C57   1.364       .  D
C57          C58   1.541       .  S
C57        C1768   1.487       .  S
C58          C62   1.538       .  S
C58          C60   1.542       .  S
C58          H64   1.110       .  S
C59          H65   1.083       .  S
C59          C60   1.373       .  D
C60        C1705   1.477       .  S
C61          H66   1.085       .  S
C61          C62   1.351       .  D
C62        C1717   1.475       .  S
O67          C78   1.289       .  A
O67        Eu103   2.451       .  S
O68          C79   1.295       .  A
O68        Eu102   2.479       .  S
O69          C80   1.291       .  A
O69         Eu75   2.452       .  S
O70          C81   1.290       .  A
O70         Eu75   2.457       .  S
O71          C81   1.286       .  A
O71        Eu105   2.424       .  S
O72          C80   1.293   1_565  A
O72        Eu104   2.470       .  S
O73          C79   1.292       .  A
O73         Eu75   2.463       .  S
O74          C78   1.292       .  A
O74         Eu75   2.457       .  S
Eu75         O85   2.347       .  S
Eu75         O77   2.352       .  S
Eu75         O76   2.351       .  S
Eu75         O83   2.349       .  S
O76        Eu105   2.345       .  S
O76        Eu102   2.344       .  S
O77        Eu103   2.349       .  S
O77        Eu104   2.353   1_545  S
C78        C1708   1.489       .  S
C79        C1648   1.486       .  S
C80        C1576   1.482       .  S
C81        C1621   1.477       .  S
H82          O83   0.965       .  S
O83        Eu104   2.348   1_545  S
O83        Eu102   2.365       .  S
H84          O85   0.965       .  S
O85        Eu103   2.363       .  S
O85        Eu105   2.334       .  S
O86         C109   1.293       .  A
O86        Eu102   2.468   1_565  S
O87         C110   1.293       .  A
O87        Eu103   2.478   1_565  S
O88         C111   1.288       .  A
O88        Eu104   2.439       .  S
O89         C112   1.294       .  A
O89        Eu105   2.481       .  S
O90         C113   1.294       .  A
O90        Eu105   2.469       .  S
O91         C114   1.289       .  A
O91        Eu104   2.445       .  S
O92         C115   1.292       .  A
O92        Eu106   2.469       .  S
O93         C116   1.292   1_565  A
O93        Eu106   2.462       .  S
O94         C115   1.296       .  A
O94        Eu104   2.486       .  S
O95         C116   1.285       .  A
O95        Eu105   2.412       .  S
O96         C111   1.290       .  A
O96        Eu102   2.448   1_565  S
O97         C114   1.289       .  A
O97        Eu103   2.450   1_565  S
O98         C113   1.292       .  A
O98        Eu103   2.469       .  S
O99         C112   1.293       .  A
O99        Eu102   2.472       .  S
O100        C109   1.290       .  A
O100       Eu106   2.453       .  S
O101        C110   1.295       .  A
O101       Eu106   2.474       .  S
Eu102       O120   2.364       .  S
Eu102       O108   2.353   1_545  S
Eu103       O107   2.339       .  S
Eu103       O118   2.365   1_545  S
Eu104       O118   2.342       .  S
Eu104       O108   2.345       .  S
Eu105       O107   2.355       .  S
Eu105       O120   2.339       .  S
Eu106       O107   2.349   1_565  S
Eu106       O118   2.344       .  S
Eu106       O120   2.363   1_565  S
Eu106       O108   2.353       .  S
C109       C1669   1.467       .  S
C110       C1585   1.506       .  S
C111       C1660   1.474       .  S
C112       C1681   1.484       .  S
C113       C1609   1.498       .  S
C114       C1600   1.460       .  S
C115       C1633   1.495       .  S
C116       C1564   1.474       .  S
H117        O118   0.965       .  S
H119        O120   0.964       .  S
C121        C122   1.550   1_554  S
C121        C127   1.523       .  S
C121        C125   1.534       .  S
C121       C1537   1.535       .  S
C122        H129   1.080       .  S
C122        C123   1.375       .  D
C123        C124   1.552   1_556  S
C123       C1837   1.510       .  S
C124        C128   1.550       .  S
C124        C126   1.546       .  S
C124        H130   1.109       .  S
C125        H131   1.086       .  S
C125        C126   1.366       .  D
C126       C1672   1.484       .  S
C127        H132   1.088       .  S
C127        C128   1.353       .  D
C128       C1549   1.484       .  S
C133        C134   1.538   1_556  S
C133        C139   1.532   1_556  S
C133        C137   1.558       .  S
C133       C1513   1.545       .  S
C134        H141   1.086       .  S
C134        C135   1.360       .  D
C135        C136   1.525       .  S
C135       C1657   1.464       .  S
C136        C140   1.537       .  S
C136        C138   1.541   1_554  S
C136        H142   1.106       .  S
C137        H143   1.078       .  S
C137        C138   1.377       .  D
C138       C1849   1.509       .  S
C139        H144   1.087       .  S
C139        C140   1.362       .  D
C140       C1525   1.475       .  S
C145        C146   1.550       .  S
C145        C151   1.533       .  S
C145        C149   1.545       .  S
C145       C1492   1.547       .  S
C146        H153   1.080       .  S
C146        C147   1.360       .  D
C147        C148   1.525       .  S
C147       C1597   1.471       .  S
C148        C152   1.535       .  S
C148        C150   1.542       .  S
C148        H154   1.106       .  S
C149        H155   1.085       .  S
C149        C150   1.379       .  D
C150       C1777   1.507       .  S
C151        H156   1.086       .  S
C151        C152   1.360       .  D
C152       C1501   1.471       .  S
C157        C158   1.554       .  S
C157        C163   1.540   1_554  S
C157        C161   1.536   1_554  S
C157       C1465   1.547       .  S
C158        H165   1.084       .  S
C158        C159   1.380       .  D
C159        C160   1.544   1_554  S
C159       C1684   1.509       .  S
C160        C164   1.535       .  S
C160        C162   1.528       .  S
C160        H166   1.107       .  S
C161        H167   1.086       .  S
C161        C162   1.361       .  D
C162       C1828   1.468       .  S
C163        H168   1.085   1_556  S
C163        C164   1.359       .  D
C164       C1477   1.475       .  S
C169        C170   1.552       .  S
C169        C175   1.524       .  S
C169        C173   1.533   1_556  S
C169       C1444   1.534       .  S
C170        H177   1.080       .  S
C170        C171   1.374       .  D
C171        C172   1.541       .  S
C171       C1864   1.492       .  S
C172        C176   1.544       .  S
C172        C174   1.547   1_556  S
C172        H178   1.110       .  S
C173        H179   1.087       .  S
C173        C174   1.362       .  D
C174       C1645   1.484       .  S
C175        H180   1.087       .  S
C175        C176   1.357       .  D
C176       C1453   1.484       .  S
C181        C182   1.545       .  S
C181        C187   1.532       .  S
C181        C185   1.556       .  S
C181       C1417   1.546       .  S
C182        H189   1.086       .  S
C182        C183   1.369       .  D
C183        C184   1.534       .  S
C183       C1612   1.485       .  S
C184        C188   1.535       .  S
C184        C186   1.530       .  S
C184        H190   1.111       .  S
C185        H191   1.079       .  S
C185        C186   1.366       .  D
C186       C1756   1.481       .  S
C187        H192   1.087       .  S
C187        C188   1.361       .  D
C188       C1429   1.479       .  S
C193        C194   1.530       .  S
C193        C199   1.526       .  S
C193        C197   1.545       .  S
C193       C1393   1.535       .  S
C194        H201   1.086       .  S
C194        C195   1.367       .  D
C195        C196   1.547       .  S
C195       C1792   1.474       .  S
C196        C200   1.550       .  S
C196        C198   1.547       .  S
C196        H202   1.110       .  S
C197        H203   1.078       .  S
C197        C198   1.364       .  D
C198       C1588   1.494       .  S
C199        H204   1.086       .  S
C199        C200   1.360       .  D
C200       C1405   1.495       .  S
O205        C216   1.289       .  A
O205       Eu241   2.449       .  S
O206        C217   1.292   1_455  A
O206       Eu240   2.466       .  S
O207        C218   1.289       .  A
O207       Eu213   2.448       .  S
O208        C219   1.293       .  A
O208       Eu213   2.457       .  S
O209        C219   1.290       .  A
O209       Eu243   2.461       .  S
O210        C218   1.296       .  A
O210       Eu242   2.480       .  S
O211        C217   1.294       .  A
O211       Eu213   2.471       .  S
O212        C216   1.297       .  A
O212       Eu213   2.490       .  S
Eu213       O223   2.343       .  S
Eu213       O215   2.349       .  S
Eu213       O214   2.347       .  S
Eu213       O221   2.348       .  S
O214       Eu243   2.349       .  S
O214       Eu240   2.346   1_655  S
O215       Eu241   2.347       .  S
O215       Eu242   2.352       .  S
C216       C1489   1.489       .  S
C217       C1273   1.495       .  S
C218       C1357   1.496       .  S
C219       C1333   1.497       .  S
H220        O221   0.964       .  S
O221       Eu242   2.367       .  S
O221       Eu240   2.345   1_655  S
H222        O223   0.965       .  S
O223       Eu241   2.358       .  S
O223       Eu243   2.374       .  S
O224        C247   1.291       .  A
O224       Eu240   2.460       .  S
O225        C248   1.290       .  A
O225       Eu241   2.455       .  S
O226        C249   1.291       .  A
O226       Eu242   2.459   1_455  S
O227        C250   1.293       .  A
O227       Eu243   2.459   1_455  S
O228        C251   1.292       .  A
O228       Eu243   2.469       .  S
O229        C252   1.291       .  A
O229       Eu242   2.455       .  S
O230        C253   1.287       .  A
O230       Eu244   2.447       .  S
O231        C254   1.290       .  A
O231       Eu244   2.456       .  S
O232        C253   1.300       .  A
O232       Eu242   2.500   1_455  S
O233        C254   1.296       .  A
O233       Eu243   2.489   1_455  S
O234        C249   1.295       .  A
O234       Eu240   2.485       .  S
O235        C252   1.292       .  A
O235       Eu241   2.466       .  S
O236        C251   1.293       .  A
O236       Eu241   2.458       .  S
O237        C250   1.291       .  A
O237       Eu240   2.459       .  S
O238        C247   1.287       .  A
O238       Eu244   2.427       .  S
O239        C248   1.289   1_455  A
O239       Eu244   2.451       .  S
Eu240       O258   2.358       .  S
Eu240       O246   2.351       .  S
Eu241       O245   2.355       .  S
Eu241       O256   2.357       .  S
Eu242       O256   2.369       .  S
Eu242       O246   2.342   1_655  S
Eu243       O245   2.347       .  S
Eu243       O258   2.359   1_655  S
Eu244       O245   2.348   1_455  S
Eu244       O256   2.344   1_455  S
Eu244       O258   2.341       .  S
Eu244       O246   2.360       .  S
C247       C1396   1.481       .  S
C248       C1285   1.471       .  S
C249       C1348   1.479       .  S
C250       C1297   1.485       .  S
C251       C1324   1.494       .  S
C252       C1372   1.466       .  S
C253       C1381   1.508       .  S
C254       C1309   1.483       .  S
H255        O256   0.965       .  S
H257        O258   0.964       .  S
O259        C270   1.292       .  A
O259       Eu295   2.467       .  S
O260        C271   1.291   1_455  A
O260       Eu294   2.462       .  S
O261        C272   1.295       .  A
O261       Eu267   2.486       .  S
O262        C273   1.291       .  A
O262       Eu267   2.462       .  S
O263        C273   1.294       .  A
O263       Eu297   2.477       .  S
O264        C272   1.291       .  A
O264       Eu296   2.462       .  S
O265        C271   1.289       .  A
O265       Eu267   2.448       .  S
O266        C270   1.287       .  A
O266       Eu267   2.438       .  S
Eu267       O277   2.367       .  S
Eu267       O269   2.348       .  S
Eu267       O268   2.351       .  S
Eu267       O275   2.357       .  S
O268       Eu297   2.360       .  S
O268       Eu294   2.352   1_655  S
O269       Eu295   2.353       .  S
O269       Eu296   2.357       .  S
C270       C1696   1.460       .  S
C271       C1153   1.465       .  S
C272       C1177   1.483       .  S
C273       C1249   1.476       .  S
H274        O275   0.965       .  S
O275       Eu296   2.342       .  S
O275       Eu294   2.362   1_655  S
H276        O277   0.965       .  S
O277       Eu295   2.353       .  S
O277       Eu297   2.341       .  S
O278        C301   1.293       .  A
O278       Eu294   2.468       .  S
O279        C302   1.292       .  A
O279       Eu295   2.461       .  S
O280        C303   1.290       .  A
O280       Eu296   2.454   1_455  S
O281        C304   1.293       .  A
O281       Eu297   2.457   1_455  S
O282        C305   1.295       .  A
O282       Eu297   2.473       .  S
O283        C306   1.292       .  A
O283       Eu296   2.456       .  S
O284        C307   1.292       .  A
O284       Eu298   2.458       .  S
O285        C308   1.290       .  A
O285       Eu298   2.456       .  S
O286        C307   1.289       .  A
O286       Eu296   2.454   1_455  S
O287        C308   1.292       .  A
O287       Eu297   2.466   1_455  S
O288        C303   1.289       .  A
O288       Eu294   2.447       .  S
O289        C306   1.286       .  A
O289       Eu295   2.437       .  S
O290        C305   1.288       .  A
O290       Eu295   2.446       .  S
O291        C304   1.287       .  A
O291       Eu294   2.437       .  S
O292        C301   1.291       .  A
O292       Eu298   2.462       .  S
O293        C302   1.290   1_455  A
O293       Eu298   2.454       .  S
Eu294       O312   2.353       .  S
Eu294       O300   2.344       .  S
Eu295       O299   2.346       .  S
Eu295       O310   2.352       .  S
Eu296       O310   2.334       .  S
Eu296       O300   2.356   1_655  S
Eu297       O299   2.354       .  S
Eu297       O312   2.337   1_655  S
Eu298       O299   2.347   1_455  S
Eu298       O310   2.350   1_455  S
Eu298       O312   2.350       .  S
Eu298       O300   2.344       .  S
C301       C1420   1.494       .  S
C302       C1165   1.488       .  S
C303       C1213   1.462       .  S
C304       C1261   1.483       .  S
C305       C1240   1.494       .  S
C306       C1189   1.486       .  S
C307       C1201   1.492       .  S
C308       C1225   1.470       .  S
H309        O310   0.965       .  S
H311        O312   0.965       .  S
C313        C314   1.526       .  S
C313        C319   1.526       .  S
C313        C317   1.540       .  S
C313       C1129   1.527       .  S
C314        H321   1.087       .  S
C314        C315   1.361       .  D
C315        C316   1.547       .  S
C315       C1192   1.467       .  S
C316        C320   1.546       .  S
C316        C318   1.546       .  S
C316        H322   1.108       .  S
C317        H323   1.078       .  S
C317        C318   1.368       .  D
C318       C1321   1.493       .  S
C319        H324   1.087       .  S
C319        C320   1.360       .  D
C320       C1141   1.494       .  S
C325        C326   1.545       .  S
C325        C331   1.541       .  S
C325        C329   1.540       .  S
C325       C1108   1.548       .  S
C326        H333   1.083       .  S
C326        C327   1.366       .  D
C327        C328   1.545       .  S
C327       C1312   1.491       .  S
C328        C332   1.543       .  S
C328        C330   1.533       .  S
C328        H334   1.110       .  S
C329        H335   1.086       .  S
C329        C330   1.366       .  D
C330       C1204   1.478       .  S
C331        H336   1.085       .  S
C331        C332   1.367       .  D
C332       C1117   1.492       .  S
C337        C338   1.543   1_545  S
C337        C343   1.529       .  S
C337        C341   1.551       .  S
C337       C1573   1.540       .  S
C338        H345   1.086       .  S
C338        C339   1.365       .  D
C339        C340   1.532   1_565  S
C339       C1360   1.484       .  S
C340        C344   1.543       .  S
C340        C342   1.545       .  S
C340        H346   1.110       .  S
C341        H347   1.081       .  S
C341        C342   1.370       .  D
C342       C1252   1.501       .  S
C343        H348   1.086       .  S
C343        C344   1.361       .  D
C344       C1093   1.477       .  S
C349        C350   1.537       .  S
C349        C355   1.519       .  S
C349        C353   1.546   1_545  S
C349       C1744   1.526       .  S
C350        H357   1.084       .  S
C350        C351   1.365       .  D
C351        C352   1.544   1_545  S
C351       C1237   1.488       .  S
C352        C356   1.548       .  S
C352        C354   1.544       .  S
C352        H358   1.109       .  S
C353        H359   1.083       .  S
C353        C354   1.367       .  D
C354       C1369   1.491       .  S
C355        H360   1.088   1_545  S
C355        C356   1.357   1_545  D
C356       C1081   1.487       .  S
C361        C362   1.541       .  S
C361        C367   1.536       .  S
C361        C365   1.553       .  S
C361       C1057   1.550       .  S
C362        H369   1.085       .  S
C362        C363   1.368       .  D
C363        C364   1.538       .  S
C363       C1336   1.487       .  S
C364        C368   1.538       .  S
C364        C366   1.542       .  S
C364        H370   1.110       .  S
C365        H371   1.079       .  S
C365        C366   1.369       .  D
C366       C1180   1.500       .  S
C367        H372   1.086       .  S
C367        C368   1.363       .  D
C368       C1072   1.483       .  S
C373        C374   1.527       .  S
C373        C379   1.512       .  S
C373        C377   1.548       .  S
C373       C1036   1.524       .  S
C374        H381   1.087       .  S
C374        C375   1.364       .  D
C375        C376   1.550       .  S
C375       C1216   1.487       .  S
C376        C380   1.550       .  S
C376        C378   1.545       .  S
C376        H382   1.110       .  S
C377        H383   1.083       .  S
C377        C378   1.367       .  D
C378       C1300   1.479       .  S
C379        H384   1.088       .  S
C379        C380   1.356       .  D
C380       C1045   1.483       .  S
C385        C386   1.530       .  S
C385        C391   1.522       .  S
C385        C389   1.537   1_545  S
C385       C1561   1.526       .  S
C386        H393   1.086       .  S
C386        C387   1.372       .  D
C387        C388   1.551       .  S
C387       C1264   1.496       .  S
C388        C392   1.555       .  S
C388        C390   1.553   1_545  S
C388        H394   1.104       .  S
C389        H395   1.080       .  S
C389        C390   1.360       .  D
C390       C1345   1.490       .  S
C391        H396   1.086       .  S
C391        C392   1.360       .  D
C392       C1021   1.504       .  S
C397        C398   1.544   1_545  S
C397        C403   1.542       .  S
C397        C401   1.547       .  S
C397       C1729   1.551       .  S
C398        H405   1.086       .  S
C398        C399   1.376       .  D
C399        C400   1.545   1_565  S
C399       C1384   1.506       .  S
C400        C404   1.533       .  S
C400        C402   1.536       .  S
C400        H406   1.109       .  S
C401        H407   1.085       .  S
C401        C402   1.368       .  D
C402       C1228   1.482       .  S
C403        H408   1.083       .  S
C403        C404   1.359       .  D
C404       C1009   1.481       .  S
O409        C420   1.290   1_556  A
O409       Eu445   2.455       .  S
O410        C421   1.289       .  A
O410       Eu444   2.449       .  S
O411        C422   1.290       .  A
O411       Eu417   2.453       .  S
O412        C423   1.288       .  A
O412       Eu417   2.439       .  S
O413        C423   1.294       .  A
O413       Eu447   2.467       .  S
O414        C422   1.289       .  A
O414       Eu446   2.451   1_554  S
O415        C421   1.296       .  A
O415       Eu417   2.486       .  S
O416        C420   1.295       .  A
O416       Eu417   2.478       .  S
Eu417       O427   2.355       .  S
Eu417       O419   2.351       .  S
Eu417       O418   2.351       .  S
Eu417       O425   2.344       .  S
O418       Eu447   2.355       .  S
O418       Eu444   2.353       .  S
O419       Eu445   2.350   1_554  S
O419       Eu446   2.348   1_554  S
C420       C1516   1.494       .  S
C421       C1060   1.497       .  S
C422        C928   1.466       .  S
C423       C1000   1.474       .  S
H424        O425   0.964       .  S
O425       Eu446   2.365   1_554  S
O425       Eu444   2.347       .  S
H426        O427   0.965       .  S
O427       Eu445   2.346   1_554  S
O427       Eu447   2.366       .  S
O428        C451   1.292   1_554  A
O428       Eu444   2.463       .  S
O429        C452   1.289       .  A
O429       Eu445   2.449       .  S
O430        C453   1.292       .  A
O430       Eu446   2.470   1_554  S
O431        C454   1.291       .  A
O431       Eu447   2.460       .  S
O432        C455   1.296       .  A
O432       Eu447   2.484   1_556  S
O433        C456   1.290       .  A
O433       Eu446   2.452       .  S
O434        C457   1.293       .  A
O434       Eu448   2.464       .  S
O435        C458   1.292       .  A
O435       Eu448   2.461       .  S
O436        C457   1.292       .  A
O436       Eu446   2.470       .  S
O437        C458   1.297       .  A
O437       Eu447   2.492   1_556  S
O438        C453   1.292       .  A
O438       Eu444   2.461       .  S
O439        C456   1.292       .  A
O439       Eu445   2.465       .  S
O440        C455   1.293       .  A
O440       Eu445   2.467       .  S
O441        C454   1.291       .  A
O441       Eu444   2.457       .  S
O442        C451   1.287       .  A
O442       Eu448   2.440       .  S
O443        C452   1.287       .  A
O443       Eu448   2.424       .  S
Eu444       O462   2.349       .  S
Eu444       O450   2.344       .  S
Eu445       O449   2.350       .  S
Eu445       O460   2.355       .  S
Eu446       O460   2.363       .  S
Eu446       O450   2.345   1_556  S
Eu447       O449   2.340   1_554  S
Eu447       O462   2.371       .  S
Eu448       O449   2.352       .  S
Eu448       O460   2.346       .  S
Eu448       O462   2.339   1_556  S
Eu448       O450   2.345   1_556  S
C451       C1441   1.481       .  S
C452       C1132   1.479       .  S
C453        C916   1.473       .  S
C454        C961   1.466       .  S
C455        C988   1.490       .  S
C456        C937   1.470       .  S
C457        C952   1.500       .  S
C458        C976   1.489       .  S
H459        O460   0.965       .  S
H461        O462   0.964       .  S
O463        C474   1.295       .  A
O463       Eu499   2.482       .  S
O464        C475   1.296       .  A
O464       Eu498   2.481       .  S
O465        C476   1.296       .  A
O465       Eu471   2.493       .  S
O466        C477   1.293       .  A
O466       Eu471   2.468       .  S
O467        C477   1.296       .  A
O467       Eu501   2.492   1_554  S
O468        C476   1.288       .  A
O468       Eu500   2.443   1_554  S
O469        C475   1.281       .  A
O469       Eu471   2.413       .  S
O470        C474   1.287   1_554  A
O470       Eu471   2.422       .  S
Eu471       O481   2.356   1_554  S
Eu471       O473   2.339   1_554  S
Eu471       O472   2.345       .  S
Eu471       O479   2.358       .  S
O472       Eu501   2.354   1_554  S
O472       Eu498   2.346       .  S
O473       Eu499   2.352       .  S
O473       Eu500   2.359       .  S
C474       C1540   1.484   1_556  S
C475       C1033   1.481       .  S
C476        C844   1.478       .  S
C477        C892   1.513       .  S
H478        O479   0.965       .  S
O479       Eu500   2.340   1_554  S
O479       Eu498   2.357       .  S
H480        O481   0.965       .  S
O481       Eu499   2.351       .  S
O481       Eu501   2.335       .  S
O482        C505   1.292       .  A
O482       Eu498   2.465       .  S
O483        C506   1.291       .  A
O483       Eu499   2.456       .  S
O484        C507   1.297       .  A
O484       Eu500   2.492   1_554  S
O485        C508   1.290       .  A
O485       Eu501   2.452   1_554  S
O486        C509   1.291       .  A
O486       Eu501   2.469       .  S
O487        C510   1.291       .  A
O487       Eu500   2.466       .  S
O488        C511   1.296       .  A
O488       Eu502   2.477       .  S
O489        C512   1.291       .  A
O489       Eu502   2.455       .  S
O490        C511   1.282       .  A
O490       Eu500   2.417       .  S
O491        C512   1.292       .  A
O491       Eu501   2.467       .  S
O492        C507   1.288       .  A
O492       Eu498   2.453       .  S
O493        C510   1.291       .  A
O493       Eu499   2.454       .  S
O494        C509   1.293       .  A
O494       Eu499   2.459       .  S
O495        C508   1.289       .  A
O495       Eu498   2.445       .  S
O496        C505   1.296   1_556  A
O496       Eu502   2.484       .  S
O497        C506   1.297       .  A
O497       Eu502   2.491       .  S
Eu498       O516   2.359   1_554  S
Eu498       O504   2.353   1_554  S
Eu499       O503   2.352       .  S
Eu499       O514   2.365       .  S
Eu500       O514   2.345       .  S
Eu500       O504   2.353       .  S
Eu501       O503   2.361       .  S
Eu501       O516   2.340       .  S
Eu502       O503   2.358       .  S
Eu502       O514   2.355       .  S
Eu502       O516   2.362       .  S
Eu502       O504   2.351       .  S
C505       C1468   1.480       .  S
C506       C1105   1.482       .  S
C507        C829   1.508       .  S
C508        C904   1.463       .  S
C509        C877   1.503       .  S
C510        C853   1.496       .  S
C511        C817   1.488       .  S
C512        C865   1.468       .  S
H513        O514   0.965       .  S
H515        O516   0.965       .  S
C517        C518   1.548   1_655  S
C517        C523   1.538       .  S
C517        C521   1.527       .  S
C517       C1288   1.535       .  S
C518        H525   1.079       .  S
C518        C519   1.370       .  D
C519        C520   1.537       .  S
C519        C856   1.492       .  S
C520        C524   1.553       .  S
C520        C522   1.551   1_455  S
C520        H526   1.105       .  S
C521        H527   1.087       .  S
C521        C522   1.359       .  D
C522        C985   1.488       .  S
C523        H528   1.086   1_655  S
C523        C524   1.366   1_655  D
C524        C805   1.508       .  S
C529        C530   1.540       .  S
C529        C535   1.531       .  S
C529        C533   1.549   1_655  S
C529       C1168   1.540       .  S
C530        H537   1.086       .  S
C530        C531   1.371       .  D
C531        C532   1.545       .  S
C531        C973   1.485       .  S
C532        C536   1.535       .  S
C532        C534   1.531   1_655  S
C532        H538   1.111       .  S
C533        H539   1.080       .  S
C533        C534   1.360       .  D
C534        C820   1.478       .  S
C535        H540   1.087       .  S
C535        C536   1.361       .  D
C536        C793   1.483       .  S
C541        C542   1.542       .  S
C541        C547   1.539       .  S
C541        C545   1.535       .  S
C541       C1816   1.535       .  S
C542        H549   1.081       .  S
C542        C543   1.370       .  D
C543        C544   1.544       .  S
C543        C880   1.490       .  S
C544        C548   1.540       .  S
C544        C546   1.535       .  S
C544        H550   1.111       .  S
C545        H551   1.086       .  S
C545        C546   1.365       .  D
C546        C940   1.475       .  S
C547        H552   1.086       .  S
C547        C548   1.356       .  D
C548        C781   1.484       .  S
C553        C554   1.557       .  S
C553        C559   1.537       .  S
C553        C557   1.549       .  S
C553       C1636   1.554       .  S
C554        H561   1.080       .  S
C554        C555   1.365       .  D
C555        C556   1.526       .  S
C555        C925   1.473       .  S
C556        C560   1.537       .  S
C556        C558   1.541       .  S
C556        H562   1.111       .  S
C557        H563   1.085       .  S
C557        C558   1.376       .  D
C558        C889   1.504       .  S
C559        H564   1.086       .  S
C559        C560   1.362       .  D
C560        C769   1.485       .  S
C565        C566   1.531   1_655  S
C565        C571   1.530       .  S
C565        C569   1.541       .  S
C565       C1156   1.534       .  S
C566        H573   1.087       .  S
C566        C567   1.367       .  D
C567        C568   1.552   1_455  S
C567        C832   1.504       .  S
C568        C572   1.552       .  S
C568        C570   1.548       .  S
C568        H574   1.110       .  S
C569        H575   1.083       .  S
C569        C570   1.371       .  D
C570        C964   1.487       .  S
C571        H576   1.087       .  S
C571        C572   1.357       .  D
C572        C760   1.487       .  S
C577        C578   1.535       .  S
C577        C583   1.533       .  S
C577        C581   1.558   1_655  S
C577       C1276   1.546       .  S
C578        H585   1.086       .  S
C578        C579   1.361       .  D
C579        C580   1.534       .  S
C579        C997   1.469       .  S
C580        C584   1.538       .  S
C580        C582   1.539   1_655  S
C580        H586   1.110       .  S
C581        H587   1.081       .  S
C581        C582   1.375       .  D
C582        C841   1.499       .  S
C583        H588   1.087       .  S
C583        C584   1.363       .  D
C584        C745   1.481       .  S
C589        C590   1.539       .  S
C589        C595   1.529       .  S
C589        C593   1.561       .  S
C589       C1804   1.541       .  S
C590        H597   1.086       .  S
C590        C591   1.367       .  D
C591        C592   1.540       .  S
C591        C949   1.486       .  S
C592        C596   1.536       .  S
C592        C594   1.531       .  S
C592        H598   1.110       .  S
C593        H599   1.079       .  S
C593        C594   1.371       .  D
C594        C868   1.495       .  S
C595        H600   1.087       .  S
C595        C596   1.357       .  D
C596        C736   1.472       .  S
C601        C602   1.539       .  S
C601        C607   1.526       .  S
C601        C605   1.545       .  S
C601       C1624   1.530       .  S
C602        H609   1.086       .  S
C602        C603   1.364       .  D
C603        C604   1.529       .  S
C603        C901   1.473       .  S
C604        C608   1.549       .  S
C604        C606   1.552       .  S
C604        H610   1.104       .  S
C605        H611   1.079       .  S
C605        C606   1.374       .  D
C606        C913   1.517       .  S
C607        H612   1.087       .  S
C607        C608   1.354       .  D
C608        C721   1.478       .  S
O613        C624   1.302       .  A
O613       Eu649   2.528       .  S
O614        C625   1.295       .  A
O614       Eu648   2.486       .  S
O615        C626   1.302       .  A
O615       Eu621   2.532       .  S
O616        C627   1.295       .  A
O616       Eu621   2.489       .  S
O617        C627   1.287       .  A
O617       Eu651   2.433       .  S
O618        C626   1.280       .  A
O618       Eu650   2.390       .  S
O619        C625   1.283       .  A
O619       Eu621   2.412       .  S
O620        C624   1.277       .  A
O620       Eu621   2.373       .  S
Eu621       O631   2.354       .  S
Eu621       O623   2.338       .  S
Eu621       O622   2.359       .  S
Eu621       O629   2.334       .  S
O622       Eu651   2.361       .  S
O622       Eu648   2.365       .  S
O623       Eu649   2.337       .  S
O623       Eu650   2.346       .  S
C624       C1720   1.478       .  S
C625        C733   1.459       .  S
C626       C1144   1.482       .  S
C627       C1432   1.470       .  S
H628        O629   0.963       .  S
O629       Eu650   2.342       .  S
O629       Eu648   2.357       .  S
H630        O631   0.965       .  S
O631       Eu649   2.344       .  S
O631       Eu651   2.330       .  S
O632        C655   1.299       .  A
O632       Eu648   2.515       .  S
O633        C656   1.298       .  A
O633       Eu649   2.510       .  S
O634        C657   1.302       .  A
O634       Eu650   2.529       .  S
O635        C658   1.294       .  A
O635       Eu651   2.481       .  S
O636        C659   1.302       .  A
O636       Eu651   2.528       .  S
O637        C660   1.296       .  A
O637       Eu650   2.492       .  S
O638        C661   1.295       .  A
O638       Eu652   2.490       .  S
O639        C662   1.302       .  A
O639       Eu652   2.529       .  S
O640        C661   1.285       .  A
O640       Eu650   2.410       .  S
O641        C662   1.278       .  A
O641       Eu651   2.375       .  S
O642        C657   1.283       .  A
O642       Eu648   2.400       .  S
O643        C660   1.285       .  A
O643       Eu649   2.420       .  S
O644        C659   1.278       .  A
O644       Eu649   2.393       .  S
O645        C658   1.288       .  A
O645       Eu648   2.435       .  S
O646        C655   1.282       .  A
O646       Eu652   2.399       .  S
O647        C656   1.282       .  A
O647       Eu652   2.407       .  S
Eu648       O666   2.337       .  S
Eu648       O654   2.341       .  S
Eu649       O653   2.351       .  S
Eu649       O664   2.363       .  S
Eu650       O664   2.362       .  S
Eu650       O654   2.342       .  S
Eu651       O653   2.343       .  S
Eu651       O666   2.363       .  S
Eu652       O653   2.344       .  S
Eu652       O664   2.370       .  S
Eu652       O666   2.339       .  S
Eu652       O654   2.349       .  S
C655       C1408   1.477       .  S
C656        C772   1.474       .  S
C657        C784   1.496       .  S
C658       C1120   1.466       .  S
C659        C724   1.496       .  S
C660       C1069   1.475       .  S
C661       C1504   1.474       .  S
C662       C1048   1.472       .  S
H663        O664   0.966       .  S
H665        O666   0.965       .  S
O667        C678   1.302       .  A
O667       Eu703   2.532       .  S
O668        C679   1.294       .  A
O668       Eu702   2.481   1_455  S
O669        C680   1.303       .  A
O669       Eu675   2.532       .  S
O670        C681   1.295       .  A
O670       Eu675   2.487   1_545  S
O671        C681   1.286   1_554  A
O671       Eu705   2.415       .  S
O672        C680   1.281   1_655  A
O672       Eu704   2.390       .  S
O673        C679   1.289       .  A
O673       Eu675   2.442   1_545  S
O674        C678   1.280   1_556  A
O674       Eu675   2.394       .  S
Eu675       O685   2.359   1_566  S
Eu675       O677   2.336       .  S
Eu675       O676   2.364   1_565  S
Eu675       O683   2.333   1_455  S
O676       Eu705   2.357   1_556  S
O676       Eu702   2.361   1_455  S
O677       Eu703   2.334   1_556  S
O677       Eu704   2.341   1_455  S
C678       C1552   1.491       .  S
C679       C1012   1.471       .  S
C680        C808   1.487       .  S
C681       C1480   1.478       .  S
H682        O683   0.964       .  S
O683       Eu704   2.349       .  S
O683       Eu702   2.361   1_565  S
H684        O685   0.965       .  S
O685       Eu703   2.341   1_545  S
O685       Eu705   2.338       .  S
O686        C709   1.298       .  A
O686       Eu702   2.508       .  S
O687        C710   1.295       .  A
O687       Eu703   2.489   1_655  S
O688        C711   1.304       .  A
O688       Eu704   2.542       .  S
O689        C712   1.293       .  A
O689       Eu705   2.477   1_556  S
O690        C713   1.300       .  A
O690       Eu705   2.518       .  S
O691        C714   1.299       .  A
O691       Eu704   2.514   1_554  S
O692        C715   1.295       .  A
O692       Eu706   2.495   1_565  S
O693        C716   1.304       .  A
O693       Eu706   2.540       .  S
O694        C715   1.288   1_556  A
O694       Eu704   2.420       .  S
O695        C716   1.279   1_455  A
O695       Eu705   2.387       .  S
O696        C711   1.281   1_545  A
O696       Eu702   2.389       .  S
O697        C714   1.283       .  A
O697       Eu703   2.399   1_655  S
O698        C713   1.281   1_565  A
O698       Eu703   2.400       .  S
O699        C712   1.286   1_655  A
O699       Eu702   2.429       .  S
O700        C709   1.281   1_554  A
O700       Eu706   2.390       .  S
O701        C710   1.285   1_545  A
O701       Eu706   2.418       .  S
Eu702       O720   2.335   1_556  S
Eu702       O708   2.348       .  S
Eu703       O707   2.347   1_465  S
Eu703       O718   2.370   1_455  S
Eu704       O718   2.373   1_556  S
Eu704       O708   2.348   1_565  S
Eu705       O707   2.339   1_455  S
Eu705       O720   2.350   1_455  S
Eu706       O707   2.344       .  S
Eu706       O718   2.372   1_545  S
Eu706       O720   2.342       .  S
Eu706       O708   2.360   1_554  S
C709       C1456   1.473       .  S
C710       C1096   1.468       .  S
C711       C1084   1.491       .  S
C712        C796   1.464       .  S
C713       C1024   1.477       .  S
C714        C748   1.490       .  S
C715       C1528   1.485       .  S
C716        C757   1.492       .  S
H717        O718   0.966       .  S
H719        O720   0.965       .  S
C721        C722   1.385       .  A
C721        C726   1.417       .  A
C722        C723   1.392       .  A
C722        H731   1.080       .  S
C723        C724   1.431       .  A
C723        S727   1.810       .  S
C724        C725   1.406       .  A
C725        C726   1.407       .  A
C725        H732   1.083       .  S
C726        S728   1.803       .  S
S727        H730   1.407       .  S
S728        H729   1.405       .  S
C733        C734   1.398       .  A
C733        C738   1.414       .  A
C734        C735   1.397       .  A
C734        H743   1.084       .  S
C735        C736   1.418       .  A
C735        S739   1.805       .  S
C736        C737   1.394       .  A
C737        C738   1.393       .  A
C737        H744   1.084       .  S
C738        S740   1.799       .  S
S739        H742   1.405       .  S
S740        H741   1.395       .  S
C745        C746   1.407       .  A
C745        C750   1.410   1_655  A
C746        C747   1.410       .  A
C746        H755   1.083       .  S
C747        C748   1.413       .  A
C747        S751   1.799       .  S
C748        C749   1.410   1_655  A
C749        C750   1.391       .  A
C749        H756   1.085       .  S
C750        S752   1.810       .  S
S751        H754   1.407       .  S
S752        H753   1.402       .  S
C757        C758   1.406       .  A
C757        C762   1.421       .  A
C758        C759   1.413       .  A
C758        H767   1.084       .  S
C759        C760   1.420       .  A
C759        S763   1.799       .  S
C760        C761   1.397       .  A
C761        C762   1.389       .  A
C761        H768   1.085   1_655  S
C762        S764   1.805   1_655  S
S763        H766   1.405       .  S
S764        H765   1.405       .  S
C769        C770   1.396       .  A
C769        C774   1.420       .  A
C770        C771   1.397       .  A
C770        H779   1.084       .  S
C771        C772   1.415       .  A
C771        S775   1.799       .  S
C772        C773   1.401       .  A
C773        C774   1.405       .  A
C773        H780   1.084       .  S
C774        S776   1.805       .  S
S775        H778   1.403       .  S
S776        H777   1.402       .  S
C781        C782   1.410       .  A
C781        C786   1.403       .  A
C782        C783   1.404       .  A
C782        H791   1.084       .  S
C783        C784   1.412       .  A
C783        S787   1.798       .  S
C784        C785   1.417       .  A
C785        C786   1.397       .  A
C785        H792   1.082       .  S
C786        S788   1.807       .  S
S787        H790   1.402       .  S
S788        H789   1.407       .  S
C793        C794   1.402       .  A
C793        C798   1.417   1_655  A
C794        C795   1.404       .  A
C794        H803   1.082       .  S
C795        C796   1.409   1_655  A
C795        S799   1.806       .  S
C796        C797   1.396       .  A
C797        C798   1.399       .  A
C797        H804   1.083       .  S
C798        S800   1.807       .  S
S799        H802   1.407       .  S
S800        H801   1.407       .  S
C805        C806   1.418       .  A
C805        C810   1.414   1_455  A
C806        C807   1.405       .  A
C806        H815   1.083       .  S
C807        C808   1.406       .  A
C807        S811   1.802       .  S
C808        C809   1.411       .  A
C809        C810   1.405   1_455  A
C809        H816   1.083   1_455  S
C810        S812   1.807       .  S
S811        H814   1.406       .  S
S812        H813   1.404       .  S
C817        C818   1.404       .  A
C817        C822   1.425       .  A
C818        C819   1.397       .  A
C818        H827   1.082       .  S
C819        C820   1.413       .  A
C819        S823   1.808       .  S
C820        C821   1.397       .  A
C821        C822   1.399       .  A
C821        H828   1.082       .  S
C822        S824   1.811       .  S
S823        H826   1.406       .  S
S824        H825   1.407       .  S
C829        C830   1.408       .  A
C829        C834   1.425       .  A
C830        C831   1.409       .  A
C830        H839   1.081       .  S
C831        C832   1.417       .  A
C831        S835   1.799   1_455  S
C832        C833   1.404       .  A
C833        C834   1.403       .  A
C833        H840   1.084       .  S
C834        S836   1.803       .  S
S835        H838   1.406       .  S
S836        H837   1.408       .  S
C841        C842   1.406       .  A
C841        C846   1.418       .  A
C842        C843   1.401       .  A
C842        H851   1.083       .  S
C843        C844   1.413       .  A
C843        S847   1.807       .  S
C844        C845   1.402       .  A
C845        C846   1.408       .  A
C845        H852   1.083       .  S
C846        S848   1.806       .  S
S847        H850   1.402       .  S
S848        H849   1.406       .  S
C853        C854   1.411       .  A
C853        C858   1.421       .  A
C854        C855   1.402       .  A
C854        H863   1.083       .  S
C855        C856   1.413       .  A
C855        S859   1.804       .  S
C856        C857   1.403       .  A
C857        C858   1.400       .  A
C857        H864   1.081       .  S
C858        S860   1.811       .  S
S859        H862   1.407       .  S
S860        H861   1.407       .  S
C865        C866   1.395       .  A
C865        C870   1.408       .  A
C866        C867   1.400       .  A
C866        H875   1.083       .  S
C867        C868   1.421       .  A
C867        S871   1.803       .  S
C868        C869   1.408       .  A
C869        C870   1.401       .  A
C869        H876   1.084       .  S
C870        S872   1.801       .  S
S871        H874   1.406       .  S
S872        H873   1.405       .  S
C877        C878   1.411       .  A
C877        C882   1.423       .  A
C878        C879   1.399       .  A
C878        H887   1.083       .  S
C879        C880   1.412       .  A
C879        S883   1.806       .  S
C880        C881   1.403       .  A
C881        C882   1.404       .  A
C881        H888   1.084       .  S
C882        S884   1.801       .  S
S883        H886   1.405       .  S
S884        H885   1.408       .  S
C889        C890   1.407       .  A
C889        C894   1.412       .  A
C890        C891   1.406       .  A
C890        H899   1.083       .  S
C891        C892   1.422       .  A
C891        S895   1.801       .  S
C892        C893   1.415       .  A
C893        C894   1.408       .  A
C893        H900   1.083       .  S
C894        S896   1.802       .  S
S895        H898   1.408       .  S
S896        H897   1.407       .  S
C901        C902   1.403       .  A
C901        C906   1.412       .  A
C902        C903   1.397       .  A
C902        H911   1.084       .  S
C903        C904   1.412       .  A
C903        S907   1.807       .  S
C904        C905   1.401       .  A
C905        C906   1.396       .  A
C905        H912   1.084       .  S
C906        S908   1.803       .  S
S907        H910   1.406       .  S
S908        H909   1.403       .  S
C913        C914   1.417       .  A
C913        C918   1.424       .  A
C914        C915   1.396       .  A
C914        H923   1.082       .  S
C915        C916   1.403       .  A
C915        S919   1.807       .  S
C916        C917   1.402       .  A
C917        C918   1.411       .  A
C917        H924   1.081       .  S
C918        S920   1.805       .  S
S919        H922   1.406       .  S
S920        H921   1.407       .  S
C925        C926   1.400       .  A
C925        C930   1.414       .  A
C926        C927   1.392       .  A
C926        H935   1.083       .  S
C927        C928   1.411       .  A
C927        S931   1.805       .  S
C928        C929   1.403       .  A
C929        C930   1.401       .  A
C929        H936   1.084       .  S
C930        S932   1.806       .  S
S931        H934   1.403       .  S
S932        H933   1.403       .  S
C937        C938   1.402       .  A
C937        C942   1.411       .  A
C938        C939   1.398       .  A
C938        H947   1.084       .  S
C939        C940   1.413       .  A
C939        S943   1.804       .  S
C940        C941   1.402       .  A
C941        C942   1.399       .  A
C941        H948   1.084       .  S
C942        S944   1.803       .  S
S943        H946   1.404       .  S
S944        H945   1.406       .  S
C949        C950   1.401       .  A
C949        C954   1.411       .  A
C950        C951   1.401       .  A
C950        H959   1.084       .  S
C951        C952   1.421       .  A
C951        S955   1.802       .  S
C952        C953   1.412       .  A
C953        C954   1.403       .  A
C953        H960   1.083       .  S
C954        S956   1.804       .  S
S955        H958   1.408       .  S
S956        H957   1.406       .  S
C961        C962   1.399       .  A
C961        C966   1.408       .  A
C962        C963   1.403       .  A
C962        H971   1.083       .  S
C963        C964   1.418       .  A
C963        S967   1.807       .  S
C964        C965   1.402       .  A
C965        C966   1.396       .  A
C965        H972   1.078       .  S
C966        S968   1.804       .  S
S967        H970   1.407       .  S
S968        H969   1.405       .  S
C973        C974   1.404       .  A
C973        C978   1.406       .  A
C974        C975   1.404       .  A
C974        H983   1.084       .  S
C975        C976   1.416       .  A
C975        S979   1.802       .  S
C976        C977   1.409       .  A
C977        C978   1.407       .  A
C977        H984   1.083       .  S
C978        S980   1.805       .  S
S979        H982   1.407       .  S
S980        H981   1.407       .  S
C985        C986   1.400       .  A
C985        C990   1.414       .  A
C986        C987   1.404       .  A
C986        H995   1.084       .  S
C987        C988   1.419       .  A
C987        S991   1.803       .  S
C988        C989   1.404       .  A
C989        C990   1.407       .  A
C989        H996   1.081       .  S
C990        S992   1.807       .  S
S991        H994   1.403       .  S
S992        H993   1.406       .  S
C997        C998   1.398       .  A
C997       C1002   1.411       .  A
C998        C999   1.397       .  A
C998       H1007   1.084       .  S
C999       C1000   1.418       .  A
C999       S1003   1.804       .  S
C1000      C1001   1.402       .  A
C1001      C1002   1.395       .  A
C1001      H1008   1.084       .  S
C1002      S1004   1.801       .  S
S1003      H1006   1.403       .  S
S1004      H1005   1.403       .  S
C1009      C1010   1.407       .  A
C1009      C1014   1.409   1_545  A
C1010      C1011   1.401       .  A
C1010      H1019   1.084       .  S
C1011      C1012   1.411       .  A
C1011      S1015   1.806       .  S
C1012      C1013   1.404   1_545  A
C1013      C1014   1.399       .  A
C1013      H1020   1.084       .  S
C1014      S1016   1.802       .  S
S1015      H1018   1.402       .  S
S1016      H1017   1.402       .  S
C1021      C1022   1.410       .  A
C1021      C1026   1.418       .  A
C1022      C1023   1.393       .  A
C1022      H1031   1.083   1_545  S
C1023      C1024   1.408       .  A
C1023      S1027   1.804   1_545  S
C1024      C1025   1.405       .  A
C1025      C1026   1.413       .  A
C1025      H1032   1.079       .  S
C1026      S1028   1.805       .  S
S1027      H1030   1.406   1_565  S
S1028      H1029   1.407       .  S
C1033      C1034   1.399       .  A
C1033      C1038   1.421       .  A
C1034      C1035   1.401       .  A
C1034      H1043   1.082       .  S
C1035      C1036   1.428       .  A
C1035      S1039   1.814       .  S
C1036      C1037   1.400       .  A
C1037      C1038   1.388       .  A
C1037      H1044   1.078       .  S
C1038      S1040   1.803       .  S
S1039      H1042   1.406       .  S
S1040      H1041   1.396       .  S
C1045      C1046   1.401       .  A
C1045      C1050   1.411       .  A
C1046      C1047   1.386       .  A
C1046      H1055   1.085       .  S
C1047      C1048   1.416       .  A
C1047      S1051   1.808       .  S
C1048      C1049   1.407       .  A
C1049      C1050   1.411       .  A
C1049      H1056   1.083       .  S
C1050      S1052   1.799       .  S
S1051      H1054   1.396       .  S
S1052      H1053   1.407       .  S
C1057      C1058   1.410       .  A
C1057      C1062   1.426       .  A
C1058      C1059   1.403       .  A
C1058      H1067   1.071       .  S
C1059      C1060   1.418       .  A
C1059      S1063   1.811       .  S
C1060      C1061   1.402       .  A
C1061      C1062   1.408       .  A
C1061      H1068   1.082       .  S
C1062      S1064   1.809       .  S
S1063      H1066   1.406       .  S
S1064      H1065   1.407       .  S
C1069      C1070   1.399       .  A
C1069      C1074   1.416       .  A
C1070      C1071   1.403       .  A
C1070      H1079   1.084       .  S
C1071      C1072   1.415       .  A
C1071      S1075   1.793       .  S
C1072      C1073   1.398       .  A
C1073      C1074   1.397       .  A
C1073      H1080   1.084       .  S
C1074      S1076   1.803       .  S
S1075      H1078   1.405       .  S
S1076      H1077   1.405       .  S
C1081      C1082   1.412       .  A
C1081      C1086   1.403   1_565  A
C1082      C1083   1.403       .  A
C1082      H1091   1.084       .  S
C1083      C1084   1.407       .  A
C1083      S1087   1.796       .  S
C1084      C1085   1.417   1_565  A
C1085      C1086   1.401       .  A
C1085      H1092   1.082       .  S
C1086      S1088   1.808       .  S
S1087      H1090   1.404       .  S
S1088      H1089   1.407       .  S
C1093      C1094   1.405   1_545  A
C1093      C1098   1.411       .  A
C1094      C1095   1.399       .  A
C1094      H1103   1.084       .  S
C1095      C1096   1.409       .  A
C1095      S1099   1.804       .  S
C1096      C1097   1.405   1_565  A
C1097      C1098   1.399       .  A
C1097      H1104   1.085       .  S
C1098      S1100   1.804       .  S
S1099      H1102   1.403       .  S
S1100      H1101   1.403       .  S
C1105      C1106   1.402       .  A
C1105      C1110   1.408       .  A
C1106      C1107   1.402       .  A
C1106      H1115   1.085       .  S
C1107      C1108   1.425       .  A
C1107      S1111   1.803       .  S
C1108      C1109   1.418       .  A
C1109      C1110   1.404       .  A
C1109      H1116   1.081       .  S
C1110      S1112   1.804       .  S
S1111      H1114   1.404       .  S
S1112      H1113   1.406       .  S
C1117      C1118   1.409       .  A
C1117      C1122   1.412       .  A
C1118      C1119   1.396       .  A
C1118      H1127   1.084       .  S
C1119      C1120   1.405       .  A
C1119      S1123   1.804       .  S
C1120      C1121   1.404       .  A
C1121      C1122   1.407       .  A
C1121      H1128   1.084       .  S
C1122      S1124   1.800       .  S
S1123      H1126   1.407       .  S
S1124      H1125   1.406       .  S
C1129      C1130   1.411       .  A
C1129      C1134   1.421       .  A
C1130      C1131   1.394       .  A
C1130      H1139   1.074       .  S
C1131      C1132   1.412       .  A
C1131      S1135   1.803       .  S
C1132      C1133   1.403       .  A
C1133      C1134   1.393       .  A
C1133      H1140   1.082       .  S
C1134      S1136   1.814       .  S
S1135      H1138   1.407       .  S
S1136      H1137   1.407       .  S
C1141      C1142   1.404       .  A
C1141      C1146   1.414       .  A
C1142      C1143   1.393       .  A
C1142      H1151   1.083       .  S
C1143      C1144   1.410       .  A
C1143      S1147   1.808       .  S
C1144      C1145   1.408       .  A
C1145      C1146   1.413       .  A
C1145      H1152   1.074       .  S
C1146      S1148   1.805       .  S
S1147      H1150   1.406       .  S
S1148      H1149   1.407       .  S
C1153      C1154   1.401       .  A
C1153      C1158   1.407   1_655  A
C1154      C1155   1.397       .  A
C1154      H1163   1.084       .  S
C1155      C1156   1.417       .  A
C1155      S1159   1.800       .  S
C1156      C1157   1.415   1_655  A
C1157      C1158   1.398       .  A
C1157      H1164   1.083       .  S
C1158      S1160   1.807       .  S
S1159      H1162   1.406       .  S
S1160      H1161   1.402       .  S
C1165      C1166   1.405       .  A
C1165      C1170   1.415   1_655  A
C1166      C1167   1.406       .  A
C1166      H1175   1.081       .  S
C1167      C1168   1.421       .  A
C1167      S1171   1.810       .  S
C1168      C1169   1.411   1_655  A
C1169      C1170   1.395       .  A
C1169      H1176   1.070       .  S
C1170      S1172   1.814       .  S
S1171      H1174   1.407       .  S
S1172      H1173   1.406       .  S
C1177      C1178   1.401       .  A
C1177      C1182   1.417       .  A
C1178      C1179   1.403       .  A
C1178      H1187   1.084       .  S
C1179      C1180   1.421       .  A
C1179      S1183   1.805       .  S
C1180      C1181   1.405       .  A
C1181      C1182   1.406       .  A
C1181      H1188   1.083       .  S
C1182      S1184   1.807       .  S
S1183      H1186   1.407       .  S
S1184      H1185   1.402       .  S
C1189      C1190   1.407       .  A
C1189      C1194   1.424       .  A
C1190      C1191   1.394       .  A
C1190      H1199   1.083       .  S
C1191      C1192   1.408       .  A
C1191      S1195   1.803       .  S
C1192      C1193   1.397       .  A
C1193      C1194   1.396       .  A
C1193      H1200   1.085       .  S
C1194      S1196   1.803       .  S
S1195      H1198   1.403       .  S
S1196      H1197   1.396       .  S
C1201      C1202   1.410       .  A
C1201      C1206   1.421       .  A
C1202      C1203   1.403       .  A
C1202      H1211   1.082       .  S
C1203      C1204   1.407       .  A
C1203      S1207   1.806       .  S
C1204      C1205   1.398       .  A
C1205      C1206   1.398       .  A
C1205      H1212   1.082       .  S
C1206      S1208   1.802       .  S
S1207      H1210   1.407       .  S
S1208      H1209   1.408       .  S
C1213      C1214   1.405       .  A
C1213      C1218   1.403       .  A
C1214      C1215   1.405       .  A
C1214      H1223   1.084       .  S
C1215      C1216   1.413       .  A
C1215      S1219   1.801       .  S
C1216      C1217   1.408       .  A
C1217      C1218   1.391       .  A
C1217      H1224   1.083       .  S
C1218      S1220   1.806       .  S
S1219      H1222   1.405       .  S
S1220      H1221   1.406       .  S
C1225      C1226   1.401       .  A
C1225      C1230   1.411       .  A
C1226      C1227   1.400       .  A
C1226      H1235   1.084       .  S
C1227      C1228   1.416       .  A
C1227      S1231   1.802       .  S
C1228      C1229   1.403       .  A
C1229      C1230   1.399       .  A
C1229      H1236   1.084       .  S
C1230      S1232   1.805       .  S
S1231      H1234   1.405       .  S
S1232      H1233   1.405       .  S
C1237      C1238   1.402       .  A
C1237      C1242   1.411       .  A
C1238      C1239   1.401       .  A
C1238      H1247   1.084       .  S
C1239      C1240   1.422       .  A
C1239      S1243   1.801       .  S
C1240      C1241   1.405       .  A
C1241      C1242   1.401       .  A
C1241      H1248   1.082       .  S
C1242      S1244   1.799       .  S
S1243      H1246   1.408       .  S
S1244      H1245   1.407       .  S
C1249      C1250   1.400       .  A
C1249      C1254   1.411       .  A
C1250      C1251   1.402       .  A
C1250      H1259   1.084       .  S
C1251      C1252   1.424       .  A
C1251      S1255   1.805       .  S
C1252      C1253   1.406       .  A
C1253      C1254   1.401       .  A
C1253      H1260   1.080       .  S
C1254      S1256   1.805       .  S
S1255      H1258   1.405       .  S
S1256      H1257   1.402       .  S
C1261      C1262   1.402       .  A
C1261      C1266   1.415       .  A
C1262      C1263   1.398       .  A
C1262      H1271   1.082       .  S
C1263      C1264   1.418       .  A
C1263      S1267   1.805       .  S
C1264      C1265   1.410       .  A
C1265      C1266   1.397       .  A
C1265      H1272   1.084       .  S
C1266      S1268   1.805       .  S
S1267      H1270   1.406       .  S
S1268      H1269   1.408       .  S
C1273      C1274   1.402       .  A
C1273      C1278   1.416   1_655  A
C1274      C1275   1.407       .  A
C1274      H1283   1.082       .  S
C1275      C1276   1.427       .  A
C1275      S1279   1.813       .  S
C1276      C1277   1.410   1_655  A
C1277      C1278   1.401       .  A
C1277      H1284   1.075       .  S
C1278      S1280   1.801       .  S
S1279      H1282   1.407       .  S
S1280      H1281   1.407       .  S
C1285      C1286   1.403   1_655  A
C1285      C1290   1.408       .  A
C1286      C1287   1.399       .  A
C1286      H1295   1.085       .  S
C1287      C1288   1.420   1_455  A
C1287      S1291   1.804       .  S
C1288      C1289   1.413       .  A
C1289      C1290   1.397       .  A
C1289      H1296   1.083       .  S
C1290      S1292   1.804       .  S
S1291      H1294   1.407   1_455  S
S1292      H1293   1.402       .  S
C1297      C1298   1.404       .  A
C1297      C1302   1.417       .  A
C1298      C1299   1.399       .  A
C1298      H1307   1.078       .  S
C1299      C1300   1.407       .  A
C1299      S1303   1.801       .  S
C1300      C1301   1.399       .  A
C1301      C1302   1.403       .  A
C1301      H1308   1.081       .  S
C1302      S1304   1.809       .  S
S1303      H1306   1.407       .  S
S1304      H1305   1.407       .  S
C1309      C1310   1.402       .  A
C1309      C1314   1.416       .  A
C1310      C1311   1.408       .  A
C1310      H1319   1.083       .  S
C1311      C1312   1.414       .  A
C1311      S1315   1.805       .  S
C1312      C1313   1.401       .  A
C1313      C1314   1.404       .  A
C1313      H1320   1.080       .  S
C1314      S1316   1.804       .  S
S1315      H1318   1.407       .  S
S1316      H1317   1.406       .  S
C1321      C1322   1.402       .  A
C1321      C1326   1.415       .  A
C1322      C1323   1.401       .  A
C1322      H1331   1.082       .  S
C1323      C1324   1.421       .  A
C1323      S1327   1.798       .  S
C1324      C1325   1.407       .  A
C1325      C1326   1.396       .  A
C1325      H1332   1.083       .  S
C1326      S1328   1.806       .  S
S1327      H1330   1.407       .  S
S1328      H1329   1.407       .  S
C1333      C1334   1.408       .  A
C1333      C1338   1.419       .  A
C1334      C1335   1.398       .  A
C1334      H1343   1.083       .  S
C1335      C1336   1.416       .  A
C1335      S1339   1.802       .  S
C1336      C1337   1.402       .  A
C1337      C1338   1.398       .  A
C1337      H1344   1.084       .  S
C1338      S1340   1.799       .  S
S1339      H1342   1.396       .  S
S1340      H1341   1.405       .  S
C1345      C1346   1.402       .  A
C1345      C1350   1.421       .  A
C1346      C1347   1.407       .  A
C1346      H1355   1.084       .  S
C1347      C1348   1.417       .  A
C1347      S1351   1.803       .  S
C1348      C1349   1.397       .  A
C1349      C1350   1.397       .  A
C1349      H1356   1.084       .  S
C1350      S1352   1.804       .  S
S1351      H1354   1.405       .  S
S1352      H1353   1.397   1_565  S
C1357      C1358   1.406       .  A
C1357      C1362   1.424       .  A
C1358      C1359   1.401       .  A
C1358      H1367   1.082       .  S
C1359      C1360   1.409       .  A
C1359      S1363   1.802       .  S
C1360      C1361   1.399       .  A
C1361      C1362   1.407       .  A
C1361      H1368   1.083       .  S
C1362      S1364   1.810       .  S
S1363      H1366   1.407       .  S
S1364      H1365   1.406       .  S
C1369      C1370   1.405       .  A
C1369      C1374   1.423       .  A
C1370      C1371   1.396       .  A
C1370      H1379   1.083       .  S
C1371      C1372   1.410       .  A
C1371      S1375   1.804       .  S
C1372      C1373   1.398       .  A
C1373      C1374   1.400       .  A
C1373      H1380   1.084       .  S
C1374      S1376   1.805       .  S
S1375      H1378   1.402       .  S
S1376      H1377   1.406       .  S
C1381      C1382   1.406       .  A
C1381      C1386   1.426       .  A
C1382      C1383   1.407       .  A
C1382      H1391   1.082       .  S
C1383      C1384   1.418       .  A
C1383      S1387   1.804   1_565  S
C1384      C1385   1.405       .  A
C1385      C1386   1.405       .  A
C1385      H1392   1.084       .  S
C1386      S1388   1.803       .  S
S1387      H1390   1.407   1_545  S
S1388      H1389   1.408       .  S
C1393      C1394   1.412       .  A
C1393      C1398   1.421       .  A
C1394      C1395   1.398       .  A
C1394      H1403   1.070       .  S
C1395      C1396   1.412       .  A
C1395      S1399   1.814       .  S
C1396      C1397   1.405       .  A
C1397      C1398   1.399       .  A
C1397      H1404   1.082       .  S
C1398      S1400   1.812       .  S
S1399      H1402   1.406       .  S
S1400      H1401   1.407       .  S
C1405      C1406   1.407       .  A
C1405      C1410   1.418       .  A
C1406      C1407   1.411       .  A
C1406      H1415   1.081       .  S
C1407      C1408   1.417       .  A
C1407      S1411   1.806       .  S
C1408      C1409   1.400       .  A
C1409      C1410   1.392       .  A
C1409      H1416   1.085       .  S
C1410      S1412   1.806       .  S
S1411      H1414   1.405       .  S
S1412      H1413   1.405       .  S
C1417      C1418   1.410       .  A
C1417      C1422   1.425       .  A
C1418      C1419   1.399       .  A
C1418      H1427   1.070       .  S
C1419      C1420   1.417       .  A
C1419      S1423   1.813       .  S
C1420      C1421   1.405       .  A
C1421      C1422   1.408       .  A
C1421      H1428   1.082       .  S
C1422      S1424   1.810       .  S
S1423      H1426   1.406       .  S
S1424      H1425   1.406       .  S
C1429      C1430   1.400       .  A
C1429      C1434   1.418       .  A
C1430      C1431   1.403       .  A
C1430      H1439   1.083       .  S
C1431      C1432   1.412       .  A
C1431      S1435   1.807       .  S
C1432      C1433   1.399       .  A
C1433      C1434   1.401       .  A
C1433      H1440   1.084       .  S
C1434      S1436   1.805       .  S
S1435      H1438   1.407       .  S
S1436      H1437   1.402       .  S
C1441      C1442   1.396   1_556  A
C1441      C1446   1.414       .  A
C1442      C1443   1.400       .  A
C1442      H1451   1.082       .  S
C1443      C1444   1.428   1_554  A
C1443      S1447   1.810       .  S
C1444      C1445   1.407       .  A
C1445      C1446   1.396       .  A
C1445      H1452   1.076       .  S
C1446      S1448   1.797       .  S
S1447      H1450   1.406       .  S
S1448      H1449   1.407       .  S
C1453      C1454   1.407       .  A
C1453      C1458   1.412   1_556  A
C1454      C1455   1.409       .  A
C1454      H1463   1.084       .  S
C1455      C1456   1.415       .  A
C1455      S1459   1.802       .  S
C1456      C1457   1.402   1_556  A
C1457      C1458   1.389       .  A
C1457      H1464   1.085       .  S
C1458      S1460   1.802       .  S
S1459      H1462   1.407       .  S
S1460      H1461   1.407       .  S
C1465      C1466   1.419   1_554  A
C1465      C1470   1.423       .  A
C1466      C1467   1.400       .  A
C1466      H1475   1.079       .  S
C1467      C1468   1.404   1_556  A
C1467      S1471   1.806       .  S
C1468      C1469   1.404       .  A
C1469      C1470   1.410       .  A
C1469      H1476   1.083       .  S
C1470      S1472   1.810       .  S
S1471      H1474   1.406       .  S
S1472      H1473   1.407       .  S
C1477      C1478   1.408       .  A
C1477      C1482   1.410   1_556  A
C1478      C1479   1.409       .  A
C1478      H1487   1.084       .  S
C1479      C1480   1.413       .  A
C1479      S1483   1.802       .  S
C1480      C1481   1.405   1_556  A
C1481      C1482   1.387       .  A
C1481      H1488   1.085       .  S
C1482      S1484   1.808       .  S
S1483      H1486   1.406       .  S
S1484      H1485   1.397       .  S
C1489      C1490   1.404       .  A
C1489      C1494   1.409       .  A
C1490      C1491   1.411       .  A
C1490      H1499   1.083       .  S
C1491      C1492   1.425       .  A
C1491      S1495   1.810       .  S
C1492      C1493   1.412       .  A
C1493      C1494   1.397       .  A
C1493      H1500   1.075       .  S
C1494      S1496   1.798       .  S
S1495      H1498   1.407       .  S
S1496      H1497   1.407       .  S
C1501      C1502   1.405       .  A
C1501      C1506   1.403       .  A
C1502      C1503   1.405       .  A
C1502      H1511   1.083       .  S
C1503      C1504   1.413       .  A
C1503      S1507   1.804       .  S
C1504      C1505   1.406       .  A
C1505      C1506   1.393       .  A
C1505      H1512   1.081       .  S
C1506      S1508   1.807       .  S
S1507      H1510   1.405       .  S
S1508      H1509   1.406       .  S
C1513      C1514   1.407       .  A
C1513      C1518   1.428   1_556  A
C1514      C1515   1.395       .  A
C1514      H1523   1.073       .  S
C1515      C1516   1.416   1_556  A
C1515      S1519   1.799       .  S
C1516      C1517   1.403       .  A
C1517      C1518   1.409       .  A
C1517      H1524   1.081       .  S
C1518      S1520   1.811       .  S
S1519      H1522   1.405       .  S
S1520      H1521   1.407       .  S
C1525      C1526   1.407       .  A
C1525      C1530   1.408   1_554  A
C1526      C1527   1.409       .  A
C1526      H1535   1.084       .  S
C1527      C1528   1.414       .  A
C1527      S1531   1.798       .  S
C1528      C1529   1.405   1_554  A
C1529      C1530   1.389       .  A
C1529      H1536   1.082       .  S
C1530      S1532   1.807       .  S
S1531      H1534   1.406   1_565  S
S1532      H1533   1.396       .  S
C1537      C1538   1.411   1_554  A
C1537      C1542   1.424       .  A
C1538      C1539   1.400       .  A
C1538      H1547   1.076       .  S
C1539      C1540   1.413   1_556  A
C1539      S1543   1.803       .  S
C1540      C1541   1.403       .  A
C1541      C1542   1.397       .  A
C1541      H1548   1.082       .  S
C1542      S1544   1.815       .  S
S1543      H1546   1.408       .  S
S1544      H1545   1.407       .  S
C1549      C1550   1.397   1_554  A
C1549      C1554   1.420       .  A
C1550      C1551   1.391       .  A
C1550      H1559   1.085       .  S
C1551      C1552   1.419   1_556  A
C1551      S1555   1.804       .  S
C1552      C1553   1.404       .  A
C1553      C1554   1.411       .  A
C1553      H1560   1.080       .  S
C1554      S1556   1.801       .  S
S1555      H1558   1.408       .  S
S1556      H1557   1.404       .  S
C1561      C1562   1.410   1_545  A
C1561      C1566   1.420       .  A
C1562      C1563   1.394       .  A
C1562      H1571   1.075       .  S
C1563      C1564   1.411   1_565  A
C1563      S1567   1.802       .  S
C1564      C1565   1.403       .  A
C1565      C1566   1.393       .  A
C1565      H1572   1.083       .  S
C1566      S1568   1.813       .  S
S1567      H1570   1.407       .  S
S1568      H1569   1.407       .  S
C1573      C1574   1.409       .  A
C1573      C1578   1.428   1_545  A
C1574      C1575   1.395       .  A
C1574      H1583   1.077       .  S
C1575      C1576   1.410       .  A
C1575      S1579   1.797       .  S
C1576      C1577   1.399   1_545  A
C1577      C1578   1.407       .  A
C1577      H1584   1.080       .  S
C1578      S1580   1.811       .  S
S1579      H1582   1.407       .  S
S1580      H1581   1.407       .  S
C1585      C1586   1.409       .  A
C1585      C1590   1.425       .  A
C1586      C1587   1.402       .  A
C1586      H1595   1.082       .  S
C1587      C1588   1.414       .  A
C1587      S1591   1.809       .  S
C1588      C1589   1.402       .  A
C1589      C1590   1.406       .  A
C1589      H1596   1.083       .  S
C1590      S1592   1.800       .  S
S1591      H1594   1.407       .  S
S1592      H1593   1.407       .  S
C1597      C1598   1.401       .  A
C1597      C1602   1.413       .  A
C1598      C1599   1.398       .  A
C1598      H1607   1.082       .  S
C1599      C1600   1.408       .  A
C1599      S1603   1.809       .  S
C1600      C1601   1.399       .  A
C1601      C1602   1.397       .  A
C1601      H1608   1.084       .  S
C1602      S1604   1.804       .  S
S1603      H1606   1.407       .  S
S1604      H1605   1.405       .  S
C1609      C1610   1.412       .  A
C1609      C1614   1.422       .  A
C1610      C1611   1.407       .  A
C1610      H1619   1.082       .  S
C1611      C1612   1.406       .  A
C1611      S1615   1.806       .  S
C1612      C1613   1.401       .  A
C1613      C1614   1.402       .  A
C1613      H1620   1.084       .  S
C1614      S1616   1.804       .  S
S1615      H1618   1.407       .  S
S1616      H1617   1.408       .  S
C1621      C1622   1.402       .  A
C1621      C1626   1.412       .  A
C1622      C1623   1.395       .  A
C1622      H1631   1.082       .  S
C1623      C1624   1.421       .  A
C1623      S1627   1.812       .  S
C1624      C1625   1.411       .  A
C1625      C1626   1.397       .  A
C1625      H1632   1.076       .  S
C1626      S1628   1.804       .  S
S1627      H1630   1.407       .  S
S1628      H1629   1.407       .  S
C1633      C1634   1.404       .  A
C1633      C1638   1.411       .  A
C1634      C1635   1.414       .  A
C1634      H1643   1.083       .  S
C1635      C1636   1.427       .  A
C1635      S1639   1.809       .  S
C1636      C1637   1.412       .  A
C1637      C1638   1.399       .  A
C1637      H1644   1.074       .  S
C1638      S1640   1.798       .  S
S1639      H1642   1.407       .  S
S1640      H1641   1.407       .  S
C1645      C1646   1.401       .  A
C1645      C1650   1.412       .  A
C1646      C1647   1.404       .  A
C1646      H1655   1.084       .  S
C1647      C1648   1.419       .  A
C1647      S1651   1.804       .  S
C1648      C1649   1.403       .  A
C1649      C1650   1.403       .  A
C1649      H1656   1.083       .  S
C1650      S1652   1.805       .  S
S1651      H1654   1.406       .  S
S1652      H1653   1.407       .  S
C1657      C1658   1.396       .  A
C1657      C1662   1.409       .  A
C1658      C1659   1.394       .  A
C1658      H1667   1.084       .  S
C1659      C1660   1.417       .  A
C1659      S1663   1.802       .  S
C1660      C1661   1.405       .  A
C1661      C1662   1.395       .  A
C1661      H1668   1.084       .  S
C1662      S1664   1.803       .  S
S1663      H1666   1.407       .  S
S1664      H1665   1.405       .  S
C1669      C1670   1.399       .  A
C1669      C1674   1.412       .  A
C1670      C1671   1.399       .  A
C1670      H1679   1.084       .  S
C1671      C1672   1.419       .  A
C1671      S1675   1.804       .  S
C1672      C1673   1.401       .  A
C1673      C1674   1.397       .  A
C1673      H1680   1.080       .  S
C1674      S1676   1.805       .  S
S1675      H1678   1.406       .  S
S1676      H1677   1.400       .  S
C1681      C1682   1.400       .  A
C1681      C1686   1.409       .  A
C1682      C1683   1.408       .  A
C1682      H1691   1.080       .  S
C1683      C1684   1.424       .  A
C1683      S1687   1.808       .  S
C1684      C1685   1.411       .  A
C1685      C1686   1.404       .  A
C1685      H1692   1.083       .  S
C1686      S1688   1.803       .  S
S1687      H1690   1.407       .  S
S1688      H1689   1.407       .  S
C1693      C1694   1.415       .  A
C1693      C1698   1.421       .  A
C1694      C1695   1.386       .  A
C1694      H1703   1.080       .  S
C1695      C1696   1.398       .  A
C1695      S1699   1.801       .  S
C1696      C1697   1.402       .  A
C1697      C1698   1.403       .  A
C1697      H1704   1.084       .  S
C1698      S1700   1.804       .  S
S1699      H1702   1.405       .  S
S1700      H1701   1.403       .  S
C1705      C1706   1.399       .  A
C1705      C1710   1.411       .  A
C1706      C1707   1.394       .  A
C1706      H1715   1.083       .  S
C1707      C1708   1.419       .  A
C1707      S1711   1.802       .  S
C1708      C1709   1.409       .  A
C1709      C1710   1.399       .  A
C1709      H1716   1.082       .  S
C1710      S1712   1.810       .  S
S1711      H1714   1.407       .  S
S1712      H1713   1.406       .  S
C1717      C1718   1.397       .  A
C1717      C1722   1.414       .  A
C1718      C1719   1.384       .  A
C1718      H1727   1.085       .  S
C1719      C1720   1.419       .  A
C1719      S1723   1.804       .  S
C1720      C1721   1.405       .  A
C1721      C1722   1.409       .  A
C1721      H1728   1.083       .  S
C1722      S1724   1.799       .  S
S1723      H1726   1.397       .  S
S1724      H1725   1.402       .  S
C1729      C1730   1.419   1_545  A
C1729      C1734   1.421       .  A
C1730      C1731   1.403       .  A
C1730      H1739   1.078       .  S
C1731      C1732   1.409   1_565  A
C1731      S1735   1.810       .  S
C1732      C1733   1.401       .  A
C1733      C1734   1.406       .  A
C1733      H1740   1.083       .  S
C1734      S1736   1.806       .  S
S1735      H1738   1.401       .  S
S1736      H1737   1.406       .  S
C1741      C1742   1.405       .  A
C1741      C1746   1.417   1_545  A
C1742      C1743   1.397       .  A
C1742      H1751   1.083       .  S
C1743      C1744   1.423       .  A
C1743      S1747   1.805       .  S
C1744      C1745   1.407   1_545  A
C1745      C1746   1.390       .  A
C1745      H1752   1.082       .  S
C1746      S1748   1.805       .  S
S1747      H1750   1.405       .  S
S1748      H1749   1.409       .  S
C1753      C1754   1.399       .  A
C1753      C1758   1.407       .  A
C1754      C1755   1.399       .  A
C1754      H1763   1.084       .  S
C1755      C1756   1.417       .  A
C1755      S1759   1.804       .  S
C1756      C1757   1.404       .  A
C1757      C1758   1.394       .  A
C1757      H1764   1.084       .  S
C1758      S1760   1.803       .  S
S1759      H1762   1.405       .  S
S1760      H1761   1.405       .  S
C1765      C1766   1.409       .  A
C1765      C1770   1.416       .  A
C1766      C1767   1.405       .  A
C1766      H1775   1.084       .  S
C1767      C1768   1.409       .  A
C1767      S1771   1.800       .  S
C1768      C1769   1.403       .  A
C1769      C1770   1.403       .  A
C1769      H1776   1.084       .  S
C1770      S1772   1.803       .  S
S1771      H1774   1.405       .  S
S1772      H1773   1.406       .  S
C1777      C1778   1.411       .  A
C1777      C1782   1.424       .  A
C1778      C1779   1.400       .  A
C1778      H1787   1.083       .  S
C1779      C1780   1.409       .  A
C1779      S1783   1.809       .  S
C1780      C1781   1.399       .  A
C1781      C1782   1.406       .  A
C1781      H1788   1.084       .  S
C1782      S1784   1.806       .  S
S1783      H1786   1.401       .  S
S1784      H1785   1.407       .  S
C1789      C1790   1.406       .  A
C1789      C1794   1.414       .  A
C1790      C1791   1.399       .  A
C1790      H1799   1.084       .  S
C1791      C1792   1.410       .  A
C1791      S1795   1.803       .  S
C1792      C1793   1.403       .  A
C1793      C1794   1.399       .  A
C1793      H1800   1.084       .  S
C1794      S1796   1.805       .  S
S1795      H1798   1.404       .  S
S1796      H1797   1.407       .  S
C1801      C1802   1.402       .  A
C1801      C1806   1.411       .  A
C1802      C1803   1.409       .  A
C1802      H1811   1.083       .  S
C1803      C1804   1.428       .  A
C1803      S1807   1.810       .  S
C1804      C1805   1.407       .  A
C1805      C1806   1.392       .  A
C1805      H1812   1.073       .  S
C1806      S1808   1.796       .  S
S1807      H1810   1.407       .  S
S1808      H1809   1.406       .  S
C1813      C1814   1.403       .  A
C1813      C1818   1.408       .  A
C1814      C1815   1.402       .  A
C1814      H1823   1.084       .  S
C1815      C1816   1.422       .  A
C1815      S1819   1.804       .  S
C1816      C1817   1.412       .  A
C1817      C1818   1.391       .  A
C1817      H1824   1.082       .  S
C1818      S1820   1.807       .  S
S1819      H1822   1.405       .  S
S1820      H1821   1.407       .  S
C1825      C1826   1.405       .  A
C1825      C1830   1.419       .  A
C1826      C1827   1.397       .  A
C1826      H1835   1.084       .  S
C1827      C1828   1.408       .  A
C1827      S1831   1.803       .  S
C1828      C1829   1.398       .  A
C1829      C1830   1.397       .  A
C1829      H1836   1.084       .  S
C1830      S1832   1.804       .  S
S1831      H1834   1.406       .  S
S1832      H1833   1.405       .  S
C1837      C1838   1.405       .  A
C1837      C1842   1.420       .  A
C1838      C1839   1.403       .  A
C1838      H1847   1.084       .  S
C1839      C1840   1.425       .  A
C1839      S1843   1.802       .  S
C1840      C1841   1.408       .  A
C1841      C1842   1.410       .  A
C1841      H1848   1.081       .  S
C1842      S1844   1.802   1_556  S
S1843      H1846   1.408       .  S
S1844      H1845   1.406   1_554  S
C1849      C1850   1.413       .  A
C1849      C1854   1.424       .  A
C1850      C1851   1.400       .  A
C1850      H1859   1.082       .  S
C1851      C1852   1.409       .  A
C1851      S1855   1.807       .  S
C1852      C1853   1.400       .  A
C1853      C1854   1.407       .  A
C1853      H1860   1.083       .  S
C1854      S1856   1.808       .  S
S1855      H1858   1.404       .  S
S1856      H1857   1.407       .  S
C1861      C1862   1.411       .  A
C1861      C1866   1.423       .  A
C1862      C1863   1.399       .  A
C1862      H1871   1.083       .  S
C1863      C1864   1.411       .  A
C1863      S1867   1.804       .  S
C1864      C1865   1.403       .  A
C1865      C1866   1.406       .  A
C1865      H1872   1.081       .  S
C1866      S1868   1.810       .  S
S1867      H1870   1.407       .  S
S1868      H1869   1.407       .  S
