geometry optimzed in LAMMPS
_audit_creation_date              2020-11-30 
_audit_creation_method            'lammps2cif' 
_symmetry_space_group_name_H-M    'P1' 
_symmetry_Int_Tables_number       1 
_symmetry_cell_setting            triclinic 
loop_ 
_symmetry_equiv_pos_as_xyz 
  x,y,z 
_cell_length_a                    38.01853532798535 
_cell_length_b                    37.995273882439804 
_cell_length_c                    38.02045085462082 
_cell_angle_alpha                 89.97807709686023 
_cell_angle_beta                  90.00805738333261 
_cell_angle_gamma                 89.9581711852849 
loop_ 
_atom_site_label 
_atom_site_type_symbol 
_atom_site_fract_x 
_atom_site_fract_y 
_atom_site_fract_z 
_atom_site_charge 
O1          O  0.52117755  0.50078463  0.43644616    -0.88800
C2          C  0.57602626  0.48975396  0.52756008     0.87230
Mg3        Mg  0.48879049  0.54543020  0.42581918     1.58150
O4          O  0.50074925  0.43690399  0.52235464    -0.88530
O5          O  0.51472121  0.44356761  0.44075805    -0.75860
C6          C  0.39736935  0.56980505  0.57290789     0.92280
O7          O  0.55631215  0.56038564  0.48466167    -0.75670
O8          O  0.40905298  0.58560688  0.54590603    -0.83180
Mg9        Mg  0.57366959  0.51099620  0.45457314     1.57960
C10         C  0.43194585  0.42816320  0.60509748     0.92200
O11         O  0.59633962  0.46424949  0.42307470    -0.81440
H12         H  0.47270134  0.39985933  0.49772568    -0.06790
C13         C  0.48991692  0.52827493  0.57609112     0.87140
O14         O  0.43979747  0.51489501  0.44392932    -0.75950
O15         O  0.56360713  0.47894091  0.49949264    -0.88720
O16         O  0.46451957  0.42361675  0.59830698    -0.81530
C17         C  0.57328821  0.39708915  0.56880303     0.92320
C18         C  0.60254752  0.43152315  0.42714447     0.92170
Mg19       Mg  0.42632886  0.48992967  0.54681161     1.57950
O20         O  0.40425692  0.53736432  0.57848439    -0.81450
O21         O  0.44340999  0.44021459  0.51684976    -0.75690
O22         O  0.57767292  0.40409357  0.53630401    -0.81530
O23         O  0.58501685  0.54693141  0.40886607    -0.83240
O24         O  0.42262010  0.59674622  0.46398825    -0.81560
C25         C  0.47250326  0.42439954  0.51210862     0.86610
O26         O  0.43654806  0.52140553  0.50119456    -0.88700
O27         O  0.47894231  0.49990133  0.56452798    -0.88810
O28         O  0.48529169  0.55706274  0.55968746    -0.75860
Mg29       Mg  0.54546353  0.42638962  0.48983142     1.57970
O30         O  0.54714896  0.40925038  0.58587653    -0.83240
H31         H  0.49547413  0.47256797  0.40028810    -0.06960
O32         O  0.49911576  0.56379845  0.47815370    -0.88510
H33         H  0.52678777  0.60079808  0.50324142    -0.06790
H34         H  0.39998153  0.49548135  0.47370084    -0.06960
C35         C  0.52719988  0.57628013  0.48882605     0.86580
C36         C  0.51029278  0.47249736  0.42455927     0.87170
C37         C  0.42419966  0.51036863  0.47316679     0.87220
H38         H  0.50486799  0.52842542  0.60028033    -0.06940
O39         O  0.56032094  0.48531732  0.55673450    -0.75970
Mg40       Mg  0.45456516  0.57397500  0.51040793     1.58000
H41         H  0.60037838  0.50442240  0.52710732    -0.06960
C42         C  0.56810844  0.57313123  0.39656193     0.92200
O43         O  0.45224560  0.59091100  0.41369364    -0.83200
C44         C  0.42678673  0.60351226  0.43140074     0.92260
O45         O  0.59080570  0.41409925  0.45319790    -0.83180
Mg46       Mg  0.51117146  0.45508386  0.57472793     1.58180
O47         O  0.53541915  0.57732642  0.40292856    -0.81520
O48         O  0.41458950  0.45410958  0.59291485    -0.83210
O49         O  0.99350228  0.47273058  0.43915418    -0.88800
C50         C  0.98708771  0.42688248  0.53516540     0.87230
Mg51       Mg  0.03914071  0.50054084  0.42259706     1.58150
O52         O  0.93881592  0.50514500  0.52738905    -0.88530
O53         O  0.93748970  0.48384630  0.44713332    -0.75860
C54         C  0.08030974  0.60375676  0.55784727     0.92280
O55         O  0.05451638  0.43706128  0.48508473    -0.75670
O56         O  0.09484454  0.58777318  0.53224723    -0.83180
Mg57       Mg  0.00155728  0.42106958  0.46055564     1.57960
C58         C  0.94147969  0.58086976  0.60390019     0.92200
O59         O  0.95033988  0.40021720  0.43465206    -0.81440
H60         H  0.90122658  0.53295607  0.50327669    -0.06790
C61         C  0.03447206  0.51448943  0.57305034     0.87140
O62         O  0.01377012  0.55324824  0.43793223    -0.75950
O63         O  0.97466822  0.43755250  0.50702657    -0.88720
O64         O  0.93458930  0.54819485  0.60055517    -0.81530
C65         C  0.89894751  0.43985619  0.58341656     0.92320
C66         C  0.91788732  0.39714435  0.44270936     0.92170
Mg67       Mg  0.99742706  0.57751778  0.54000526     1.57950
O68         O  0.04781652  0.59980898  0.56504147    -0.81450
O69         O  0.94466417  0.56128870  0.51576491    -0.75690
O70         O  0.90290694  0.43291039  0.55087029    -0.81530
O71         O  0.03248697  0.40291047  0.41310241    -0.83240
O72         O  0.09684137  0.56598992  0.45015096    -0.81560
C73         C  0.92692254  0.53299638  0.51546232     0.86610
O74         O  0.02485588  0.56096893  0.49398866    -0.88700
O75         O  0.00606428  0.52608188  0.56216704    -0.88810
O76         O  0.06221131  0.51534836  0.55443468    -0.75860
Mg77       Mg  0.92299141  0.45890547  0.50020125     1.57970
O78         O  0.91372636  0.46629929  0.59766150    -0.83240
H79         H  0.96422489  0.49717033  0.40291563    -0.06960
O80         O  0.06090281  0.49341345  0.47421714    -0.88510
H81         H  0.09795056  0.46502314  0.49853138    -0.06790
H82         H  0.99976978  0.59705301  0.46504926    -0.06960
C83         C  0.07239875  0.46531519  0.48604929     0.86580
C84         C  0.96516900  0.48463720  0.42843199     0.87170
C85         C  0.01269543  0.57170866  0.46577350     0.87220
H86         H  0.03543011  0.50212341  0.59864751    -0.06940
O87         O  0.98607714  0.44530682  0.56304879    -0.75970
Mg88       Mg  0.07685391  0.54005947  0.50132631     1.58000
H89         H  0.00016694  0.40161434  0.53578926    -0.06960
C90         C  0.05828334  0.41747051  0.39749384     0.92200
O91         O  0.08600706  0.53170725  0.40403609    -0.83200
C92         C  0.10065262  0.55851575  0.41763294     0.92260
O93         O  0.90494228  0.41166773  0.46985575    -0.83180
Mg94       Mg  0.96061088  0.49786207  0.57893984     1.58180
O95         O  0.06525232  0.45005967  0.40144947    -0.81520
O96         O  0.96645397  0.59569347  0.58728603    -0.83210
O97         O  0.47363155  0.43891688  0.99507773    -0.88800
C98         C  0.42771031  0.53484156  0.98733430     0.87230
Mg99       Mg  0.50088502  0.42332132  0.04163351     1.58150
O100        O  0.50619347  0.52664164  0.93973019    -0.88530
O101        O  0.48517912  0.44626667  0.93907798    -0.75860
C102        C  0.60321503  0.55916524  0.08212556     0.92280
O103        O  0.43724280  0.48534042  0.05521929    -0.75670
O104        O  0.58714997  0.53366037  0.09667920    -0.83180
Mg105      Mg  0.42176180  0.46022831  0.00232314     1.57960
C106        C  0.58181060  0.60372653  0.94202243     0.92200
O107        O  0.40060933  0.43411431  0.95133522    -0.81440
H108        H  0.53466865  0.50246212  0.90270846    -0.06790
C109        C  0.51462859  0.57359209  0.03497550     0.87140
O110        O  0.55396931  0.43832815  0.01664875    -0.75950
O111        O  0.43830445  0.50657096  0.97508498    -0.88720
O112        O  0.54944690  0.59922794  0.93428633    -0.81530
C113        C  0.44099056  0.58229561  0.89913734     0.92320
C114        C  0.39738697  0.44194833  0.91883927     0.92170
Mg115      Mg  0.57813370  0.54079717  0.99902323     1.57950
O116        O  0.59977896  0.56612460  0.04950321    -0.81450
O117        O  0.56247255  0.51604959  0.94618559    -0.75690
O118        O  0.43418182  0.54963380  0.90257064    -0.81530
O119        O  0.40363490  0.41269219  0.03321749    -0.83240
O120        O  0.56646965  0.45153730  0.09908367    -0.81560
C121        C  0.53430265  0.51495467  0.92825030     0.86610
O122        O  0.56156888  0.49467264  0.02663059    -0.88700
O123        O  0.52658595  0.56239573  0.00685781    -0.88810
O124        O  0.51521858  0.55529354  0.06294670    -0.75860
Mg125      Mg  0.46016449  0.49910922  0.92359576     1.57970
O126        O  0.46720011  0.59674022  0.91406228    -0.83240
H127        H  0.49858527  0.40245396  0.96652923    -0.06960
O128        O  0.49360329  0.47518152  0.06212897    -0.88510
H129        H  0.46475385  0.49965600  0.09867849    -0.06790
H130        H  0.59778312  0.46525217  0.00231964    -0.06960
C131        C  0.46535050  0.48688821  0.07327816     0.86580
C132        C  0.48587780  0.42791399  0.96701510     0.87170
C133        C  0.57237309  0.46621690  0.01504701     0.87220
H134        H  0.50216150  0.59917060  0.03545444    -0.06940
O135        O  0.44621177  0.56269413  0.98630756    -0.75970
Mg136      Mg  0.54004506  0.50242030  0.07835277     1.58000
H137        H  0.40243207  0.53559969  0.00033462    -0.06960
C138        C  0.41774934  0.39823075  0.05993227     0.92200
O139        O  0.53096465  0.40579729  0.08987592    -0.83200
C140        C  0.55794456  0.41945749  0.10414935     0.92260
O141        O  0.41309815  0.46827497  0.90542315    -0.83180
Mg142      Mg  0.49880575  0.57840422  0.96090006     1.58180
O143        O  0.45007122  0.40296371  0.06742611    -0.81520
O144        O  0.59605367  0.58865872  0.96832562    -0.83210
O145        O  0.47792049  0.99945705  0.43644456    -0.88800
C146        C  0.42351571  0.01124004  0.52724234     0.87230
Mg147      Mg  0.51029974  0.95492332  0.42655118     1.58150
O148        O  0.49898136  0.06404791  0.52127445    -0.88530
O149        O  0.48489229  0.05662288  0.43969960    -0.75860
C150        C  0.60306364  0.93294656  0.57323076     0.92280
O151        O  0.44341797  0.94000793  0.48511590    -0.75670
O152        O  0.59226472  0.91587479  0.54655267    -0.83180
Mg153      Mg  0.42551215  0.98911145  0.45458250     1.57960
C154        C  0.56734339  0.07384100  0.60348247     0.92200
O155        O  0.40226178  0.03550166  0.42308872    -0.81440
H156        H  0.52663197  0.10107707  0.49616342    -0.06790
C157        C  0.51038452  0.97320477  0.57609614     0.87140
O158        O  0.55935883  0.98573591  0.44379365    -0.75950
O159        O  0.43602117  0.02160972  0.49905226    -0.88720
O160        O  0.53469928  0.07791588  0.59706175    -0.81530
C161        C  0.42631545  0.10396842  0.56735429     0.92320
C162        C  0.39634095  0.06831066  0.42695219     0.92170
Mg163      Mg  0.57331692  0.01177947  0.54588636     1.57950
O164        O  0.59537673  0.96522786  0.57826202    -0.81450
O165        O  0.55623999  0.06095820  0.51527641    -0.75690
O166        O  0.42254358  0.09663079  0.53487805    -0.81530
O167        O  0.41385810  0.95303619  0.40876681    -0.83240
O168        O  0.57796301  0.90457543  0.46373909    -0.81560
C169        C  0.52707077  0.07664546  0.51074246     0.86610
O170        O  0.56326783  0.97953881  0.50100574    -0.88700
O171        O  0.52074756  0.00155153  0.56384712    -0.88810
O172        O  0.51551638  0.94413361  0.56031925    -0.75860
Mg173      Mg  0.45447342  0.07406923  0.48872002     1.57970
O174        O  0.45241942  0.09257702  0.58499473    -0.83240
H175        H  0.50330025  0.02685345  0.39943435    -0.06960
O176        O  0.50069620  0.93673257  0.47903149    -0.88510
H177        H  0.47302850  0.90008609  0.50467914    -0.06790
H178        H  0.59950961  0.00533447  0.47297103    -0.06960
C179        C  0.47260511  0.92436048  0.48983915     0.86580
C180        C  0.48880448  0.02744482  0.42388908     0.87170
C181        C  0.57530465  0.99041891  0.47279664     0.87220
H182        H  0.49566317  0.97326883  0.60042245    -0.06940
O183        O  0.43919420  0.01605009  0.55635879    -0.75970
Mg184      Mg  0.54600018  0.92685945  0.51088779     1.58000
H185        H  0.39911566  0.99664726  0.52696597    -0.06960
C186        C  0.43157744  0.92733814  0.39671696     0.92200
O187        O  0.54626529  0.90967237  0.41485315    -0.83200
C188        C  0.57303239  0.89808114  0.43114372     0.92260
O189        O  0.40931606  0.08588901  0.45228333    -0.83180
Mg190      Mg  0.48837908  0.04642887  0.57386507     1.58180
O191        O  0.46403217  0.92284812  0.40382508    -0.81520
O192        O  0.58508558  0.04827214  0.59120208    -0.83210
O193        O  0.02602088  0.43842978  0.00678296    -0.88800
C194        C  0.07227967  0.53466550  0.01493842     0.87230
Mg195      Mg  0.99849581  0.42173316  0.96089140     1.58150
O196        O  0.99395985  0.52639181  0.06279203    -0.88530
O197        O  0.01532857  0.44602136  0.06299572    -0.75860
C198        C  0.89662233  0.55809379  0.91985132     0.92280
O199        O  0.06155237  0.48536063  0.94622341    -0.75670
O200        O  0.91155270  0.53168589  0.90562211    -0.83180
Mg201      Mg  0.07733793  0.46046148  0.99890498     1.57960
C202        C  0.91793381  0.60281538  0.05918757     0.92200
O203        O  0.09843217  0.43447321  0.04922851    -0.81440
H204        H  0.96550241  0.50169572  0.09946964    -0.06790
C205        C  0.98555539  0.57214854  0.96670203     0.87140
O206        O  0.94572912  0.43699231  0.98612500    -0.75950
O207        O  0.06097577  0.50643824  0.02651572    -0.88720
O208        O  0.95050734  0.59960681  0.06649560    -0.81530
C209        C  0.05843437  0.58198028  0.10365745     0.92320
C210        C  0.10291062  0.44140356  0.08169348     0.92170
Mg211      Mg  0.92224482  0.53940863  0.00279800     1.57950
O212        O  0.90126620  0.56532076  0.95224860    -0.81450
O213        O  0.93794551  0.51469383  0.05564150    -0.75690
O214        O  0.06654271  0.54972474  0.09907598    -0.81530
O215        O  0.09596473  0.41357045  0.96764007    -0.83240
O216        O  0.93372262  0.44978053  0.90213174    -0.81560
C217        C  0.96591867  0.51421580  0.07393415     0.86610
O218        O  0.93856112  0.49321213  0.97529477    -0.88700
O219        O  0.97380235  0.56133571  0.99506414    -0.88810
O220        O  0.98420601  0.55373593  0.93881990    -0.75860
Mg221      Mg  0.04038873  0.49886472  0.07839894     1.57970
O222        O  0.03198159  0.59621343  0.08887266    -0.83240
H223        H  0.00147100  0.40216602  0.03591137    -0.06960
O224        O  0.00558900  0.47345812  0.93916191    -0.88510
H225        H  0.03387858  0.49832935  0.90247214    -0.06790
H226        H  0.90207341  0.46446139  0.99993722    -0.06960
C227        C  0.03355894  0.48575236  0.92798133     0.86580
C228        C  0.01418844  0.42759481  0.03511261     0.87170
C229        C  0.92749635  0.46501529  0.98721210     0.87220
H230        H  0.99829716  0.59756343  0.96584313    -0.06940
O231        O  0.05421169  0.56277091  0.01627921    -0.75970
Mg232      Mg  0.95928136  0.50079170  0.92335162     1.58000
H233        H  0.09778657  0.53521081  0.00238109    -0.06960
C234        C  0.08193571  0.39836272  0.94136110     0.92200
O235        O  0.96738504  0.40343403  0.91393848    -0.83200
C236        C  0.94131629  0.41725921  0.89818180     0.92260
O237        O  0.08803297  0.46775240  0.09607672    -0.83180
Mg238      Mg  0.00127345  0.57809314  0.04114990     1.58180
O239        O  0.04921950  0.40101678  0.93445417    -0.81520
O240        O  0.90351667  0.58658134  0.03377851    -0.83210
O241        O  0.00617308  0.02514391  0.43821956    -0.88800
C242        C  0.01553970  0.07173771  0.53426992     0.87230
Mg243      Mg  0.95920495  0.99867377  0.42216879     1.58150
O244        O  0.06223087  0.99294585  0.52536398    -0.88530
O245        O  0.06238353  0.01390756  0.44533320    -0.75860
C246        C  0.91818946  0.89863862  0.55968932     0.92280
O247        O  0.94638829  0.06210840  0.48512364    -0.75670
O248        O  0.90406311  0.91316098  0.53306308    -0.83180
Mg249      Mg  0.99936050  0.07667533  0.46004195     1.57960
C250        C  0.05935077  0.91745874  0.60214517     0.92200
O251        O  0.04971174  0.09711457  0.43390265    -0.81440
H252        H  0.09844135  0.96366615  0.50086223    -0.06790
C253        C  0.96686715  0.98637540  0.57240806     0.87140
O254        O  0.98382000  0.94533687  0.43749269    -0.75950
O255        O  0.02667291  0.06016533  0.50596880    -0.88720
O256        O  0.06798407  0.94943117  0.59692118    -0.81530
C257        C  0.10369023  0.05782516  0.58079016     0.92320
C258        C  0.08227337  0.10121181  0.44052083     0.92170
Mg259      Mg  0.00162594  0.92203061  0.54047037     1.57950
O260        O  0.95079791  0.90211686  0.56667659    -0.81450
O261        O  0.05467154  0.93666173  0.51520019    -0.75690
O262        O  0.09855931  0.06610339  0.54868671    -0.81530
O263        O  0.96922631  0.09511810  0.41292969    -0.83240
O264        O  0.90154024  0.93372332  0.45104569    -0.81560
C265        C  0.07305644  0.96455965  0.51364363     0.86610
O266        O  0.97422888  0.93842227  0.49400210    -0.88700
O267        O  0.99491332  0.97393538  0.56148096    -0.88810
O268        O  0.93877677  0.98536911  0.55426435    -0.75860
Mg269      Mg  0.07830855  0.03917320  0.49800316     1.57970
O270        O  0.09038148  0.03036598  0.59449665    -0.83240
H271        H  0.03467155  0.99991207  0.40190441    -0.06960
O272        O  0.93874525  0.00607508  0.47404537    -0.88510
H273        H  0.90240895  0.03507593  0.49865825    -0.06790
H274        H  0.99808296  0.90168456  0.46483835    -0.06960
C275        C  0.92787694  0.03430782  0.48603420     0.86580
C276        C  0.03426596  0.01285386  0.42722058     0.87170
C277        C  0.98555036  0.92722422  0.46559912     0.87220
H278        H  0.96648330  0.99940881  0.59767711    -0.06940
O279        O  0.01719606  0.05382308  0.56246120    -0.75970
Mg280      Mg  0.92264594  0.96007465  0.50167935     1.58000
H281        H  0.00320387  0.09737842  0.53484680    -0.06960
C282        C  0.94182716  0.08267391  0.39846420     0.92200
O283        O  0.91093187  0.96860201  0.40468047    -0.83200
C284        C  0.89655977  0.94193712  0.41889403     0.92260
O285        O  0.09663063  0.08635441  0.46684968    -0.83180
Mg286      Mg  0.04193901  0.00052048  0.57715462     1.58180
O287        O  0.93327732  0.05034485  0.40191777    -0.81520
O288        O  0.03201565  0.90383864  0.58852204    -0.83210
O289        O  0.43827079  0.00717107  0.02577933    -0.88800
C290        C  0.53399917  0.01550058  0.07177317     0.87230
Mg291      Mg  0.42193529  0.96065806  0.99866578     1.58150
O292        O  0.52533980  0.06289385  0.99310942    -0.88530
O293        O  0.44524068  0.06346954  0.01486097    -0.75860
C294        C  0.55803194  0.91940617  0.89663565     0.92280
O295        O  0.48508249  0.94709733  0.06184335    -0.75670
O296        O  0.53243212  0.90469527  0.91244818    -0.83180
Mg297      Mg  0.45994262  0.99989612  0.07732881     1.57960
C298        C  0.60160139  0.05911688  0.91714664     0.92200
O299        O  0.43392314  0.05046703  0.09839993    -0.81440
H300        H  0.50011604  0.09910579  0.96445594    -0.06790
C301        C  0.57192259  0.96689666  0.98485469     0.87140
O302        O  0.43672270  0.98547621  0.94563501    -0.75950
O303        O  0.50579765  0.02752276  0.06087002    -0.88720
O304        O  0.59832423  0.06634240  0.94970110    -0.81530
C305        C  0.58191949  0.10283808  0.05763901     0.92320
C306        C  0.44137098  0.08293582  0.10220297     0.92170
Mg307      Mg  0.53850423  0.00249268  0.92141815     1.57950
O308        O  0.56447980  0.95210776  0.90025145    -0.81450
O309        O  0.51346493  0.05520546  0.93717849    -0.75690
O310        O  0.54938647  0.10001514  0.06542803    -0.81530
O311        O  0.41291725  0.96893314  0.09584619    -0.83240
O312        O  0.45040242  0.90136297  0.93420908    -0.81560
C313        C  0.51291620  0.07369321  0.96502209     0.86610
O314        O  0.49286869  0.97457112  0.93809610    -0.88700
O315        O  0.56042832  0.99493738  0.97294695    -0.88810
O316        O  0.55391149  0.93876019  0.98428392    -0.75860
Mg317      Mg  0.49822790  0.07926039  0.03950904     1.57970
O318        O  0.59514577  0.08792832  0.03082420    -0.83240
H319        H  0.40158440  0.03590521  0.00132062    -0.06960
O320        O  0.47374041  0.93930137  0.00581821    -0.88510
H321        H  0.49885537  0.90321498  0.03473354    -0.06790
H322        H  0.46373064  0.99875759  0.90157455    -0.06960
C323        C  0.48598913  0.92858978  0.03401633     0.86580
C324        C  0.42709256  0.03537811  0.01388383     0.87170
C325        C  0.46454573  0.98631224  0.92713763     0.87220
H326        H  0.59752442  0.96662111  0.99723564    -0.06940
O327        O  0.56177604  0.01616237  0.05323363    -0.75970
Mg328      Mg  0.50112996  0.92288654  0.95970902     1.58000
H329        H  0.53473937  0.00298385  0.09730423    -0.06960
C330        C  0.39825581  0.94205615  0.08242618     0.92200
O331        O  0.40350448  0.91327967  0.96748419    -0.83200
C332        C  0.41778294  0.89802204  0.94130899     0.92260
O333        O  0.46737866  0.09739663  0.08695358    -0.83180
Mg334      Mg  0.57686680  0.04090649  0.00025956     1.58180
O335        O  0.40201580  0.93455766  0.04989531    -0.81520
O336        O  0.58539996  0.03375794  0.90260642    -0.83210
O337        O  0.02034439  0.00000176  0.93593903    -0.88800
C338        C  0.07494972  0.99007072  0.02714608     0.87230
Mg339      Mg  0.98791708  0.04462864  0.92530966     1.58150
O340        O  0.00034702  0.93620937  0.02180998    -0.88530
O341        O  0.01473210  0.94272039  0.94027201    -0.75860
C342        C  0.89563033  0.06875182  0.07205137     0.92280
O343        O  0.05559507  0.06011472  0.98323197    -0.75670
O344        O  0.90851208  0.08635599  0.04666296    -0.83180
Mg345      Mg  0.07287396  0.01043324  0.95343164     1.57960
C346        C  0.93060509  0.92708247  0.10275964     0.92200
O347        O  0.09560487  0.96334471  0.92210233    -0.81440
H348        H  0.97259010  0.89962770  0.99621031    -0.06790
C349        C  0.98840688  0.02763502  0.07550227     0.87140
O350        O  0.93882373  0.01444415  0.94309328    -0.75950
O351        O  0.06288064  0.97885619  0.99906360    -0.88720
O352        O  0.96341425  0.92288122  0.09681821    -0.81530
C353        C  0.07317026  0.89783091  0.06945175     0.92320
C354        C  0.10336761  0.93119766  0.92800553     0.92170
Mg355      Mg  0.92520009  0.98932322  0.04495950     1.57950
O356        O  0.90168512  0.03597418  0.07616546    -0.81450
O357        O  0.94316981  0.94006969  0.01488728    -0.75690
O358        O  0.07698837  0.90382854  0.03667250    -0.81530
O359        O  0.08426879  0.04603243  0.90699276    -0.83240
O360        O  0.92260916  0.09750485  0.96377515    -0.81560
C361        C  0.97223741  0.92403304  0.01081653     0.86610
O362        O  0.93532164  0.02162722  0.00022809    -0.88700
O363        O  0.97760233  0.99943290  0.06338086    -0.88810
O364        O  0.98418291  0.05662519  0.05938859    -0.75860
Mg365      Mg  0.04524493  0.92604783  0.98979167     1.57970
O366        O  0.04724501  0.90984940  0.08691791    -0.83240
H367        H  0.99507857  0.97142055  0.89975194    -0.06960
O368        O  0.99827573  0.06334758  0.97766067    -0.88510
H369        H  0.02626267  0.10051819  0.00215557    -0.06790
H370        H  0.89846454  0.99611758  0.97276594    -0.06960
C371        C  0.02649575  0.07592345  0.98786738     0.86580
C372        C  0.00982542  0.97157904  0.92406637     0.87170
C373        C  0.92291305  0.01062201  0.97222763     0.87220
H374        H  0.00302289  0.02742470  0.09989605    -0.06940
O375        O  0.05912343  0.98563258  0.05627827    -0.75970
Mg376      Mg  0.95388781  0.07416606  0.01022072     1.58480
H377        H  0.09910604  0.00506076  0.02674142    -0.06960
C378        C  0.06702296  0.07238081  0.89547200     0.92200
O379        O  0.95125392  0.08978375  0.91309007    -0.83200
C380        C  0.92616853  0.10298779  0.93088168     0.92260
O381        O  0.09129948  0.91460887  0.95443167    -0.83180
Mg382      Mg  0.01017613  0.95490482  0.07421138     1.58180
O383        O  0.03445218  0.07645881  0.90248556    -0.81520
O384        O  0.91366043  0.95326771  0.09054591    -0.83210
O385        O  0.81266474  0.77557642  0.25679225    -0.88800
C386        C  0.71721963  0.82351743  0.26500620     0.87230
Mg387      Mg  0.82874222  0.74796340  0.21049513     1.58150
O388        O  0.72463151  0.74497319  0.31265430    -0.88530
O389        O  0.80522050  0.76545260  0.31311029    -0.75860
C390        C  0.69069700  0.64885939  0.16912690     0.92280
O391        O  0.76675839  0.81259108  0.19655456    -0.75670
O392        O  0.71703016  0.66377148  0.15481206    -0.83180
Mg393      Mg  0.79198417  0.82756180  0.24940563     1.57960
C394        C  0.64827741  0.66957441  0.30984786     0.92200
O395        O  0.81859948  0.84787111  0.30015617    -0.81440
H396        H  0.74928721  0.71583008  0.34885933    -0.06790
C397        C  0.67821827  0.73768852  0.21665989     0.87140
O398        O  0.81265932  0.69526263  0.23535326    -0.75950
O399        O  0.74531990  0.81206674  0.27682565    -0.88720
O400        O  0.65157001  0.70213430  0.31730185    -0.81530
C401        C  0.66962541  0.81003831  0.35371988     0.92320
C402        C  0.81026121  0.85284434  0.33225326     0.92170
Mg403      Mg  0.71017863  0.67362794  0.25222071     1.57950
O404        O  0.68399530  0.65288908  0.20172759    -0.81450
O405        O  0.73541207  0.68880233  0.30499006    -0.75690
O406        O  0.70208057  0.81743317  0.34977578    -0.81530
O407        O  0.83956901  0.84516254  0.21834820    -0.83240
O408        O  0.79931745  0.68362577  0.15220487    -0.81560
C409        C  0.73652919  0.71664885  0.32345809     0.86610
O410        O  0.75631797  0.68934224  0.22468658    -0.88700
O411        O  0.68895585  0.72544152  0.24486352    -0.88810
O412        O  0.69652496  0.73644667  0.18870021    -0.75860
Mg413      Mg  0.75253273  0.79105107  0.32864646     1.57970
O414        O  0.65513368  0.78393648  0.33865729    -0.83240
H415        H  0.84872263  0.75065840  0.28591126    -0.06960
O416        O  0.77715313  0.75629928  0.18907334    -0.88510
H417        H  0.75283969  0.78554047  0.15270817    -0.06790
H418        H  0.78445347  0.65199441  0.24883606    -0.06960
C419        C  0.76550658  0.78469542  0.17815592     0.86580
C420        C  0.82346424  0.76372560  0.28512984     0.87170
C421        C  0.78432676  0.67757477  0.23637278     0.87220
H422        H  0.65300065  0.75084541  0.21604354    -0.06940
O423        O  0.68896618  0.80567187  0.26624834    -0.75970
Mg424      Mg  0.74892992  0.71058963  0.17297813     1.58000
H425        H  0.71691344  0.84898616  0.25231876    -0.06960
C426        C  0.85433059  0.83079493  0.19200613     0.92200
O427        O  0.84646535  0.71682360  0.16299730    -0.83200
C428        C  0.83195595  0.69045120  0.14837289     0.92260
O429        O  0.78338070  0.83873973  0.34624319    -0.83180
Mg430      Mg  0.67290652  0.75288535  0.29121626     1.58180
O431        O  0.85023407  0.79838414  0.18445972    -0.81520
O432        O  0.66301792  0.65570166  0.28322744    -0.83210
O433        O  0.77510305  0.25553366  0.81163564    -0.88800
C434        C  0.82261156  0.26339506  0.71642015     0.87230
Mg435      Mg  0.74798203  0.20907171  0.82774709     1.58150
O436        O  0.74370477  0.31049932  0.72310250    -0.88530
O437        O  0.76324722  0.31146970  0.80389406    -0.75860
C438        C  0.64667240  0.16751479  0.69194795     0.92280
O439        O  0.81202282  0.19533516  0.76597746    -0.75670
O440        O  0.66150500  0.15384171  0.71860569    -0.83180
Mg441      Mg  0.82704539  0.24849396  0.79089666     1.57960
C442        C  0.66878058  0.30756126  0.64706990     0.92200
O443        O  0.84764498  0.29944832  0.81641097    -0.81440
H444        H  0.71468993  0.34743390  0.74677296    -0.06790
C445        C  0.73596413  0.21418187  0.67730342     0.87140
O446        O  0.69506340  0.23401847  0.81211471    -0.75950
O447        O  0.81127845  0.27576512  0.74432561    -0.88720
O448        O  0.70143636  0.31479282  0.64995602    -0.81530
C449        C  0.80866535  0.35203343  0.66855202     0.92320
C450        C  0.85069849  0.33216198  0.80951308     0.92170
Mg451      Mg  0.67260629  0.25033875  0.70930948     1.57950
O452        O  0.65165177  0.19955382  0.68327043    -0.81450
O453        O  0.68754746  0.30335777  0.73386090    -0.75690
O454        O  0.81472197  0.34934239  0.70143233    -0.81530
O455        O  0.84468847  0.21829872  0.83909906    -0.83240
O456        O  0.68296193  0.15180908  0.79950084    -0.81560
C457        C  0.71541473  0.32174218  0.73458095     0.86610
O458        O  0.68857360  0.22340739  0.75581766    -0.88700
O459        O  0.72425966  0.24259915  0.68807541    -0.88810
O460        O  0.73455633  0.18632148  0.69577625    -0.75860
Mg461      Mg  0.78879558  0.32737209  0.75154773     1.57970
O462        O  0.78397476  0.33526760  0.65342180    -0.83240
H463        H  0.74946609  0.28409568  0.84758093    -0.06960
O464        O  0.75573920  0.18779687  0.77611051    -0.88510
H465        H  0.78503942  0.15150722  0.75175000    -0.06790
H466        H  0.65166548  0.24786389  0.78423464    -0.06960
C467        C  0.78413181  0.17694258  0.76445642     0.86580
C468        C  0.76253041  0.28358916  0.82233138     0.87170
C469        C  0.67715718  0.23523926  0.78390078     0.87220
H470        H  0.74869369  0.21325380  0.65189398    -0.06940
O471        O  0.80457153  0.26369461  0.68826896    -0.75970
Mg472      Mg  0.70938983  0.17163342  0.74880180     1.58000
H473        H  0.84810520  0.25076776  0.71630780    -0.06960
C474        C  0.83078286  0.19152001  0.85355625     0.92200
O475        O  0.71727094  0.16151446  0.84600433    -0.83200
C476        C  0.69028349  0.14764719  0.83194651     0.92260
O477        O  0.83503040  0.34638843  0.78358067    -0.83180
Mg478      Mg  0.75207093  0.28852891  0.67161970     1.58180
O479        O  0.79874542  0.18300523  0.84853376    -0.81520
O480        O  0.65495036  0.28108012  0.66211905    -0.83210
O481        O  0.25648692  0.81150562  0.77538159    -0.88800
C482        C  0.26391952  0.71574911  0.82286630     0.87230
Mg483      Mg  0.21002124  0.82825817  0.74814101     1.58150
O484        O  0.31142060  0.72304366  0.74434690    -0.88530
O485        O  0.31269822  0.80350356  0.76503042    -0.75860
C486        C  0.16817680  0.69150491  0.64700603     0.92280
O487        O  0.19600339  0.76565768  0.81178187    -0.75670
O488        O  0.15393943  0.71793881  0.66189985    -0.83180
Mg489      Mg  0.24907209  0.79027919  0.82711122     1.57960
C490        C  0.30738716  0.64640785  0.66918773     0.92200
O491        O  0.30003028  0.81593791  0.84828106    -0.81440
H492        H  0.34807652  0.74733514  0.71552790    -0.06790
C493        C  0.21487604  0.67776252  0.73638993     0.87140
O494        O  0.23473325  0.81259251  0.69520090    -0.75950
O495        O  0.27604978  0.74369603  0.81142793    -0.88720
O496        O  0.31496783  0.64983712  0.70165977    -0.81530
C497        C  0.35218419  0.66702308  0.80887375     0.92320
C498        C  0.33229929  0.80788219  0.85300137     0.92170
Mg499      Mg  0.25108805  0.70984517  0.67294489     1.57950
O500        O  0.20053110  0.68422774  0.65182947    -0.81450
O501        O  0.30407655  0.73435203  0.68828712    -0.75690
O502        O  0.34838155  0.69954946  0.81643251    -0.81530
O503        O  0.21868339  0.83785203  0.84486933    -0.83240
O504        O  0.15158663  0.79992245  0.68324894    -0.81560
C505        C  0.32249148  0.73495046  0.71616387     0.86610
O506        O  0.22392588  0.75630204  0.68873459    -0.88700
O507        O  0.24324680  0.68850341  0.72462059    -0.88810
O508        O  0.18701484  0.69621571  0.73490935    -0.75860
Mg509      Mg  0.32783108  0.75055174  0.79037774     1.57970
O510        O  0.33650006  0.65319268  0.78280592    -0.83240
H511        H  0.28584186  0.84734183  0.75046531    -0.06960
O512        O  0.18826021  0.77667459  0.75568614    -0.88510
H513        H  0.15197265  0.75217710  0.78480219    -0.06790
H514        H  0.24825781  0.78469137  0.65173803    -0.06960
C515        C  0.17746180  0.76474610  0.78397351     0.86580
C516        C  0.28487950  0.82204758  0.76346278     0.87170
C517        C  0.23574870  0.78438192  0.67727163     0.87220
H518        H  0.21399688  0.65240200  0.74926349    -0.06940
O519        O  0.26456719  0.68757229  0.80489433    -0.75970
Mg520      Mg  0.17203043  0.74907456  0.70951493     1.58000
H521        H  0.25138575  0.71556491  0.84838879    -0.06960
C522        C  0.19201302  0.85304019  0.83149255     0.92200
O523        O  0.16235530  0.84656430  0.71735496    -0.83200
C524        C  0.14740803  0.83228941  0.69104933     0.92260
O525        O  0.34615131  0.78139854  0.83791355    -0.83180
Mg526      Mg  0.28925591  0.67161424  0.75210364     1.58180
O527        O  0.18416605  0.84933395  0.79908901    -0.81520
O528        O  0.28155791  0.66229524  0.65506414    -0.83210
O529        O  0.18630725  0.24913924  0.77098373    -0.88800
C530        C  0.27751760  0.25894065  0.82562133     0.87230
Mg531      Mg  0.17567357  0.20453494  0.73841547     1.58150
O532        O  0.27185008  0.31289420  0.75097674    -0.88530
O533        O  0.19058838  0.30646379  0.76571528    -0.75860
C534        C  0.32228407  0.18148726  0.64638473     0.92280
O535        O  0.23365650  0.18891860  0.80570736    -0.75670
O536        O  0.29549166  0.16427730  0.65663295    -0.83180
Mg537      Mg  0.20373190  0.23852228  0.82352926     1.57960
C538        C  0.35304583  0.32234448  0.68109498     0.92200
O539        O  0.17248604  0.28570253  0.84625951    -0.81440
H540        H  0.24640527  0.34990484  0.72354232    -0.06790
C541        C  0.32561389  0.22145918  0.73848580     0.87140
O542        O  0.19297525  0.23520065  0.68935054    -0.75950
O543        O  0.24935021  0.27013280  0.81371463    -0.88720
O544        O  0.34704648  0.32632190  0.71388335    -0.81530
C545        C  0.31986529  0.35225483  0.82251086     0.92320
C546        C  0.17743928  0.31810034  0.85354084     0.92170
Mg547      Mg  0.29521011  0.26038718  0.67604875     1.57950
O548        O  0.32701794  0.21373024  0.65426109    -0.81450
O549        O  0.26509031  0.30974287  0.69373931    -0.75690
O550        O  0.28748892  0.34526799  0.82825763    -0.81530
O551        O  0.15704360  0.20303203  0.83484447    -0.83240
O552        O  0.21351227  0.15284485  0.67206697    -0.81560
C553        C  0.26094105  0.32544557  0.72297060     0.86610
O554        O  0.25016207  0.22842514  0.68592662    -0.88700
O555        O  0.31328281  0.24981976  0.72828876    -0.88810
O556        O  0.30972698  0.19247944  0.73347424    -0.75860
Mg557      Mg  0.24014226  0.32300129  0.79626824     1.57970
O558        O  0.33608740  0.33957913  0.79620164    -0.83240
H559        H  0.15010488  0.27790365  0.74586367    -0.06960
O560        O  0.22816892  0.18594342  0.74831493    -0.88510
H561        H  0.25301908  0.14884690  0.77618375    -0.06790
H562        H  0.22261839  0.25420806  0.64925462    -0.06960
C563        C  0.23853188  0.17333974  0.77650285     0.86580
C564        C  0.17441825  0.27763619  0.76061241     0.87170
C565        C  0.22212818  0.23944996  0.67356666     0.87220
H566        H  0.35006906  0.22144274  0.75300062    -0.06940
O567        O  0.30654614  0.26353940  0.80965726    -0.75970
Mg568      Mg  0.26015679  0.17564396  0.70323096     1.58000
H569        H  0.27729598  0.24390756  0.84976901    -0.06960
C570        C  0.14651841  0.17642904  0.81746061     0.92200
O571        O  0.16332371  0.15920104  0.70183493    -0.83200
C572        C  0.18092372  0.14635438  0.67644067     0.92260
O573        O  0.20430011  0.33454505  0.84212780    -0.83180
Mg574      Mg  0.32416453  0.29422249  0.76050393     1.58180
O575        O  0.15375775  0.17225764  0.78496991    -0.81520
O576        O  0.34095922  0.29624369  0.66401744    -0.83210
O577        O  0.24413189  0.81106920  0.22411158    -0.88800
C578        C  0.23550719  0.71526555  0.17744534     0.87230
Mg579      Mg  0.29057798  0.82739505  0.25133973     1.58150
O580        O  0.18771410  0.72440051  0.25566822    -0.88530
O581        O  0.18759677  0.80449719  0.23361653    -0.75860
C582        C  0.33081541  0.69119306  0.35310861     0.92280
O583        O  0.30409606  0.76413724  0.18818245    -0.75670
O584        O  0.34472251  0.71842147  0.33954050    -0.83180
Mg585      Mg  0.25148973  0.78973546  0.17249900     1.57960
C586        C  0.19050450  0.64819621  0.33220518     0.92200
O587        O  0.20086737  0.81698958  0.15198309    -0.81440
H588        H  0.15186864  0.75005121  0.28438743    -0.06790
C589        C  0.28369180  0.67747541  0.26451821     0.87140
O590        O  0.26547641  0.81262779  0.30434262    -0.75950
O591        O  0.22393360  0.74361077  0.18850842    -0.88720
O592        O  0.18288951  0.65202606  0.29972584    -0.81530
C593        C  0.14714275  0.66818215  0.19105456     0.92320
C594        C  0.16880661  0.80871978  0.14655365     0.92170
Mg595      Mg  0.24809906  0.71023405  0.32744946     1.57950
O596        O  0.29870369  0.68301437  0.34789528    -0.81450
O597        O  0.19548323  0.73583642  0.31173445    -0.75690
O598        O  0.15186701  0.70035719  0.18279399    -0.81530
O599        O  0.28268618  0.83658880  0.15424338    -0.83240
O600        O  0.34813101  0.79943260  0.31682145    -0.81560
C601        C  0.17708617  0.73689463  0.28380150     0.86610
O602        O  0.27570076  0.75632502  0.31147421    -0.88700
O603        O  0.25537863  0.68886757  0.27586287    -0.88810
O604        O  0.31190031  0.69536571  0.26630920    -0.75860
Mg605      Mg  0.17216597  0.75138615  0.20874056     1.57970
O606        O  0.16107985  0.65432209  0.21813612    -0.83240
H607        H  0.21517451  0.84787262  0.24812631    -0.06960
O608        O  0.31176729  0.77548268  0.24426716    -0.88510
H609        H  0.34769464  0.74993894  0.21555892    -0.06790
H610        H  0.25148638  0.78534773  0.34806020    -0.06960
C611        C  0.32245818  0.76305986  0.21613110     0.86580
C612        C  0.21579786  0.82240136  0.23547540     0.87170
C613        C  0.26409501  0.78463309  0.32258414     0.87220
H614        H  0.28429128  0.65196556  0.25194487    -0.06940
O615        O  0.23399263  0.68726803  0.19568692    -0.75970
Mg616      Mg  0.32743592  0.74848910  0.29107524     1.58000
H617        H  0.24814455  0.71449757  0.15198566    -0.06960
C618        C  0.30918454  0.85163759  0.16790659     0.92200
O619        O  0.33828632  0.84545993  0.28204122    -0.83200
C620        C  0.35275373  0.83171689  0.30895179     0.92260
O621        O  0.15490718  0.78150538  0.16018624    -0.83180
Mg622      Mg  0.20889365  0.67247719  0.24872552     1.58180
O623        O  0.31665974  0.84789840  0.20042287    -0.81520
O624        O  0.21700631  0.66336153  0.34571139    -0.83210
O625        O  0.68610932  0.25135933  0.22810149    -0.88800
C626        C  0.77748080  0.23933121  0.17408017     0.87230
Mg627      Mg  0.67586277  0.29609998  0.26033636     1.58150
O628        O  0.77084191  0.18657454  0.24944105    -0.88530
O629        O  0.68965503  0.19407372  0.23451121    -0.75860
C630        C  0.82285592  0.31916178  0.35244701     0.92280
O631        O  0.73494657  0.31051758  0.19299261    -0.75670
O632        O  0.79653925  0.33602276  0.34039283    -0.83180
Mg633      Mg  0.70447273  0.26138325  0.17561890     1.57960
C634        C  0.85265960  0.17740116  0.31864089     0.92200
O635        O  0.67251499  0.21468376  0.15313389    -0.81440
H636        H  0.74522334  0.15024868  0.27756717    -0.06790
C637        C  0.82547727  0.27750016  0.26013055     0.87140
O638        O  0.69329559  0.26573459  0.30959751    -0.75950
O639        O  0.74918605  0.22895284  0.18635786    -0.88720
O640        O  0.84518765  0.17218189  0.28639142    -0.81530
C641        C  0.81861716  0.14699749  0.17737579     0.92320
C642        C  0.67701816  0.18205155  0.14660095     0.92170
Mg643      Mg  0.79539228  0.23985840  0.32362240     1.57950
O644        O  0.82741297  0.28658943  0.34575302    -0.81450
O645        O  0.76478030  0.19050032  0.30666973    -0.75690
O646        O  0.78604066  0.15372771  0.17264533    -0.81530
O647        O  0.65915212  0.29815257  0.16336118    -0.83240
O648        O  0.71385649  0.34741108  0.32673692    -0.81560
C649        C  0.76004462  0.17452136  0.27768353     0.86610
O650        O  0.75050716  0.27199327  0.31325326    -0.88700
O651        O  0.81318584  0.24942423  0.27111858    -0.88810
O652        O  0.80968035  0.30667193  0.26449720    -0.75860
Mg653      Mg  0.73903971  0.17647302  0.20441973     1.57970
O654        O  0.83517107  0.15817747  0.20418521    -0.83240
H655        H  0.64931430  0.22354068  0.25334032    -0.06960
O656        O  0.72832297  0.31420852  0.25017771    -0.88510
H657        H  0.75386048  0.35083132  0.22238340    -0.06790
H658        H  0.72262104  0.24659091  0.34988575    -0.06960
C659        C  0.73919803  0.32646421  0.22205247     0.86580
C660        C  0.67376066  0.22320066  0.23882134     0.87170
C661        C  0.72234847  0.26125448  0.32551288     0.87220
H662        H  0.84978599  0.27705278  0.24538433    -0.06940
O663        O  0.80649051  0.23445385  0.18998319    -0.75970
Mg664      Mg  0.76050771  0.32442255  0.29491499     1.58000
H665        H  0.77740045  0.25391603  0.14965915    -0.06960
C666        C  0.64685104  0.32375403  0.18109523     0.92200
O667        O  0.66416568  0.34184538  0.29629519    -0.83200
C668        C  0.68123402  0.35407066  0.32237188     0.92260
O669        O  0.70329906  0.16520471  0.15875762    -0.83180
Mg670      Mg  0.82333554  0.20415175  0.23955664     1.58180
O671        O  0.65300280  0.32760342  0.21381829    -0.81520
O672        O  0.84127300  0.20412627  0.33528975    -0.83210
O673        O  0.27588784  0.24322920  0.18786438    -0.88800
C674        C  0.32281426  0.23507349  0.28356688     0.87230
Mg675      Mg  0.24801149  0.28932392  0.17177616     1.58150
O676        O  0.24449045  0.18712147  0.27528147    -0.88530
O677        O  0.26586138  0.18681626  0.19494974    -0.75860
C678        C  0.14792548  0.33028288  0.30941762     0.92280
O679        O  0.31213783  0.30384458  0.23438556    -0.75670
O680        O  0.16333095  0.34493889  0.28353750    -0.83180
Mg681      Mg  0.32759889  0.25116652  0.20930776     1.57960
C682        C  0.16898944  0.19010414  0.35211760     0.92200
O683        O  0.34890915  0.20079512  0.18304245    -0.81440
H684        H  0.21586733  0.15093071  0.25007014    -0.06790
C685        C  0.23651514  0.28269901  0.32210684     0.87140
O686        O  0.19536435  0.26444014  0.18742308    -0.75950
O687        O  0.31153502  0.22348441  0.25535336    -0.88720
O688        O  0.20157496  0.18302191  0.34859461    -0.81530
C689        C  0.30961599  0.14689118  0.33084642     0.92320
C690        C  0.35397441  0.16864089  0.19120045     0.92170
Mg691      Mg  0.17273737  0.24718546  0.28926262     1.57950
O692        O  0.15165289  0.29751108  0.31558065    -0.81450
O693        O  0.18844438  0.19463633  0.26383135    -0.75690
O694        O  0.31741979  0.15130636  0.29855158    -0.81530
O695        O  0.34559356  0.28252061  0.16227258    -0.83240
O696        O  0.18419772  0.34894704  0.20148145    -0.81560
C697        C  0.21638389  0.17626953  0.26298679     0.86610
O698        O  0.18875003  0.27529712  0.24361527    -0.88700
O699        O  0.22444345  0.25462766  0.31092197    -0.88810
O700        O  0.23558981  0.31080820  0.30402816    -0.75860
Mg701      Mg  0.29101360  0.17156352  0.24785778     1.57970
O702        O  0.28271194  0.16086116  0.34494940    -0.83240
H703        H  0.25166062  0.21417595  0.15133402    -0.06960
O704        O  0.25598056  0.31087414  0.22346038    -0.88510
H705        H  0.28465361  0.34759849  0.24781245    -0.06790
H706        H  0.15174355  0.25118027  0.21511557    -0.06960
C707        C  0.28414344  0.32207919  0.23525502     0.86580
C708        C  0.26434793  0.21487702  0.17677441     0.87170
C709        C  0.17731021  0.26361389  0.21550409     0.87220
H710        H  0.24933186  0.28303464  0.34749007    -0.06940
O711        O  0.30478987  0.23359305  0.31166115    -0.75970
Mg712      Mg  0.21024576  0.32693748  0.25164810     1.58000
H713        H  0.34827204  0.24772055  0.28412682    -0.06960
C714        C  0.33086048  0.30792601  0.14622844     0.92200
O715        O  0.21685293  0.33677484  0.15425717    -0.83200
C716        C  0.19155419  0.35301061  0.16899745     0.92260
O717        O  0.33897764  0.15424118  0.21739540    -0.83180
Mg718      Mg  0.25198520  0.20849731  0.32704893     1.58180
O719        O  0.29829489  0.31505834  0.14989955    -0.81520
O720        O  0.15444242  0.21559236  0.33601850    -0.83210
O721        O  0.77600683  0.74392268  0.68897761    -0.88800
C722        C  0.82213211  0.73553466  0.78443864     0.87230
Mg723      Mg  0.74955697  0.79057518  0.67281376     1.58150
O724        O  0.74357407  0.68811629  0.77607209    -0.88530
O725        O  0.76465685  0.68776096  0.69569375    -0.75860
C726        C  0.64624210  0.83112365  0.80797242     0.92280
O727        O  0.81224265  0.80390498  0.73573629    -0.75670
O728        O  0.66114431  0.84543739  0.78157924    -0.83180
Mg729      Mg  0.82752978  0.75098731  0.71050485     1.57960
C730        C  0.66781749  0.69081728  0.85204184     0.92200
O731        O  0.84797188  0.70045699  0.68441286    -0.81440
H732        H  0.71509504  0.65151783  0.75130138    -0.06790
C733        C  0.73477148  0.78412692  0.82245357     0.87140
O734        O  0.69615662  0.76594884  0.68701067    -0.75950
O735        O  0.81101679  0.72355356  0.75631743    -0.88720
O736        O  0.70055295  0.68404239  0.84924169    -0.81530
C737        C  0.80861827  0.64705456  0.83153520     0.92320
C738        C  0.85203739  0.66789707  0.69125118     0.92170
Mg739      Mg  0.67193310  0.74808983  0.78909671     1.57950
O740        O  0.65090248  0.79866103  0.81511135    -0.81450
O741        O  0.68760958  0.69542754  0.76417895    -0.75690
O742        O  0.81522777  0.65083623  0.79890767    -0.81530
O743        O  0.84632308  0.78145429  0.66329946    -0.83240
O744        O  0.68382204  0.84906136  0.69941972    -0.81560
C745        C  0.71552769  0.67704480  0.76384502     0.86610
O746        O  0.68847621  0.77601028  0.74321918    -0.88700
O747        O  0.72337115  0.75578979  0.81118532    -0.88810
O748        O  0.73352020  0.81221026  0.80429461    -0.75860
Mg749      Mg  0.78956809  0.67192266  0.74845367     1.57970
O750        O  0.78277106  0.66266844  0.84608479    -0.83240
H751        H  0.75124392  0.71566493  0.65218736    -0.06960
O752        O  0.75618379  0.81168225  0.72455271    -0.88510
H753        H  0.78502170  0.84765135  0.74986461    -0.06790
H754        H  0.65206291  0.75212907  0.71374107    -0.06960
C755        C  0.78434688  0.82235055  0.73688179     0.86580
C756        C  0.76387763  0.71592059  0.67766319     0.87170
C757        C  0.67761108  0.76456259  0.71478032     0.87220
H758        H  0.74710661  0.78479848  0.84806734    -0.06940
O759        O  0.80383330  0.73483895  0.81237133    -0.75970
Mg760      Mg  0.70925053  0.82784872  0.75107985     1.58000
H761        H  0.84762783  0.74810850  0.78495475    -0.06960
C762        C  0.83305254  0.80827152  0.64841935     0.92200
O763        O  0.72012330  0.83843841  0.65495917    -0.83200
C764        C  0.69294641  0.85338270  0.66733195     0.92260
O765        O  0.83696222  0.65353315  0.71746152    -0.83180
Mg766      Mg  0.75116013  0.70982438  0.82780413     1.58180
O767        O  0.80075223  0.81633390  0.65271876    -0.81520
O768        O  0.65326635  0.71634537  0.83595908    -0.83210
C769        C  0.82098407  0.10021385  0.13109746    -0.26770
C770        C  0.83824002  0.12649367  0.15056112    -0.14840
C771        C  0.87410494  0.13358683  0.14360155     0.35790
C772        C  0.89181526  0.11411757  0.11775356    -0.26220
C773        C  0.87473790  0.08768909  0.09864118    -0.15460
C774        C  0.83881360  0.08051117  0.10538465     0.36870
N775        N  0.81928070  0.05453675  0.08603899    -0.89710
H776        H  0.79342515  0.09481428  0.13598238     0.17980
H777        H  0.91928777  0.11959901  0.11241458     0.17980
N778        N  0.89230285  0.16104805  0.16221562    -0.88740
H779        H  0.81188645  0.03479696  0.10372152     0.35350
H780        H  0.83452259  0.04256758  0.06662568     0.40450
H781        H  0.88073696  0.18499604  0.15509706     0.40070
H782        H  0.91861292  0.16242230  0.15433709     0.34960
C783        C  0.14337975  0.86750219  0.13390959    -0.26770
C784        C  0.14664176  0.83194101  0.12467215    -0.14840
C785        C  0.12726538  0.81865737  0.09599666     0.35790
C786        C  0.10419861  0.84110032  0.07765209    -0.26220
C787        C  0.09974608  0.87630836  0.08786398    -0.15460
C788        C  0.12001010  0.88983888  0.11609812     0.36870
N789        N  0.11822745  0.92604615  0.12701387    -0.89710
H790        H  0.15846233  0.87781357  0.15580223     0.17980
H791        H  0.08892887  0.83087779  0.05586107     0.17980
N792        N  0.13106080  0.78244283  0.08574912    -0.88740
H793        H  0.10740284  0.92662095  0.15229182     0.35350
H794        H  0.10189959  0.94103111  0.11083414     0.40450
H795        H  0.15697063  0.77888130  0.07723891     0.40070
H796        H  0.11487772  0.77678026  0.06424486     0.34960
C797        C  0.09430756  0.15898701  0.85220116    -0.26770
C798        C  0.12585530  0.14918319  0.83581152    -0.14840
C799        C  0.13753399  0.11385990  0.83831638     0.35790
C800        C  0.11731732  0.08943646  0.85706398    -0.26220
C801        C  0.08582566  0.09912216  0.87386583    -0.15460
C802        C  0.07412832  0.13444757  0.87123459     0.36870
N803        N  0.04239519  0.14562491  0.88852968    -0.89710
H804        H  0.08557330  0.18609562  0.85041765     0.17980
H805        H  0.12683595  0.06260943  0.85901456     0.17980
N806        N  0.17049946  0.10202814  0.82394866    -0.88740
H807        H  0.03717247  0.17211520  0.88317714     0.35350
H808        H  0.04668298  0.14387038  0.91564159     0.40450
H809        H  0.18517210  0.12244117  0.81307498     0.40070
H810        H  0.16491004  0.08426271  0.80369409     0.34960
C811        C  0.12548437  0.91978627  0.86724637    -0.26770
C812        C  0.12697758  0.91234120  0.90341250    -0.14840
C813        C  0.15023869  0.88611042  0.91563368     0.35790
C814        C  0.17098740  0.86756487  0.89148061    -0.26220
C815        C  0.16919611  0.87432566  0.85515464    -0.15460
C816        C  0.14589746  0.90071915  0.84285183     0.36870
N817        N  0.14318794  0.90846155  0.80592809    -0.89710
H818        H  0.10750207  0.93984712  0.85787024     0.17980
H819        H  0.18853696  0.84733039  0.90126522     0.17980
N820        N  0.15302792  0.87857925  0.95261844    -0.88740
H821        H  0.12695440  0.93030236  0.80178315     0.35350
H822        H  0.13044564  0.88722727  0.79397579     0.40450
H823        H  0.16324234  0.90097593  0.96489106     0.40070
H824        H  0.17099499  0.85823488  0.95717632     0.34960
C825        C  0.85806609  0.13390615  0.86524421    -0.26770
C826        C  0.85293608  0.16887816  0.87585084    -0.14840
C827        C  0.87074909  0.18173492  0.90595996     0.35790
C828        C  0.89387620  0.15942262  0.92411614    -0.26220
C829        C  0.90007651  0.12496449  0.91253960    -0.15460
C830        C  0.88167774  0.11184255  0.88316793     0.36870
N831        N  0.88713236  0.07619296  0.87169630    -0.89710
H832        H  0.84433309  0.12411412  0.84225500     0.17980
H833        H  0.90768508  0.16931579  0.94701210     0.17980
N834        N  0.86554866  0.21675694  0.91932885    -0.88740
H835        H  0.87173128  0.07070980  0.84958119     0.35350
H836        H  0.87831206  0.05954046  0.89173960     0.40450
H837        H  0.84621693  0.23039799  0.90542267     0.40070
H838        H  0.88914546  0.23051090  0.91611144     0.34960
C839        C  0.85715534  0.87201244  0.14255175    -0.26770
C840        C  0.87526359  0.85308642  0.16840242    -0.14840
C841        C  0.91208402  0.85708108  0.17176761     0.35790
C842        C  0.92969801  0.88083138  0.14961918    -0.26220
C843        C  0.91140275  0.90077929  0.12436087    -0.15460
C844        C  0.87476864  0.89548569  0.12018991     0.36870
N845        N  0.85556751  0.91361928  0.09306895    -0.89710
H846        H  0.82898478  0.86845249  0.13987122     0.17980
H847        H  0.95782445  0.88422986  0.15274522     0.17980
N848        N  0.93235432  0.83779983  0.19725983    -0.88740
H849        H  0.82887560  0.90705741  0.09392569     0.35350
H850        H  0.86503407  0.90465368  0.06884890     0.40450
H851        H  0.91669902  0.82065178  0.21189720     0.40070
H852        H  0.94288348  0.85600189  0.21498287     0.34960
C853        C  0.66080538  0.12885615  0.11239828    -0.26770
C854        C  0.65138965  0.16260037  0.12426342    -0.14840
C855        C  0.61784897  0.17620883  0.11510029     0.35790
C856        C  0.59536188  0.15619069  0.09341815    -0.26220
C857        C  0.60560685  0.12301696  0.08085911    -0.15460
C858        C  0.63851980  0.10909073  0.09111512     0.36870
N859        N  0.64966923  0.07438001  0.08137415    -0.89710
H860        H  0.68596227  0.11748459  0.11953272     0.17980
H861        H  0.56985819  0.16660524  0.08605190     0.17980
N862        N  0.60651164  0.20995482  0.12791859    -0.88740
H863        H  0.65291074  0.07324201  0.05412817     0.35350
H864        H  0.63032375  0.05638711  0.08902431     0.40450
H865        H  0.60358529  0.20785845  0.15518658     0.40070
H866        H  0.58168410  0.21632650  0.11792770     0.34960
C867        C  0.42600789  0.10625470  0.16091557    -0.26770
C868        C  0.41892733  0.10466256  0.12484178    -0.14840
C869        C  0.39104455  0.12439265  0.11053786     0.35790
C870        C  0.37060349  0.14560845  0.13284722    -0.26220
C871        C  0.37750594  0.14721934  0.16908712    -0.15460
C872        C  0.40581598  0.12746488  0.18328996     0.36870
N873        N  0.41592901  0.12937001  0.21969031    -0.89710
H874        H  0.44781833  0.09134400  0.17168873     0.17980
H875        H  0.34881321  0.16052940  0.12204922     0.17980
N876        N  0.38324397  0.12221966  0.07359459    -0.88740
H877        H  0.41049780  0.10495959  0.23119147     0.35350
H878        H  0.40179427  0.14838390  0.23348400     0.40450
H879        H  0.40460592  0.13280068  0.05989553     0.40070
H880        H  0.36144781  0.13783787  0.06740141     0.34960
C881        C  0.35666675  0.89171152  0.08908595    -0.26770
C882        C  0.37612274  0.91881720  0.10501660    -0.14840
C883        C  0.37413569  0.92291722  0.14204981     0.35790
C884        C  0.35190334  0.90085469  0.16168859    -0.26220
C885        C  0.33188001  0.87434898  0.14559018    -0.15460
C886        C  0.33465988  0.86950008  0.10877807     0.36870
N887        N  0.31599917  0.84151778  0.09145365    -0.89710
H888        H  0.35829166  0.88788844  0.06090155     0.17980
H889        H  0.35024720  0.90443087  0.18991424     0.17980
N890        N  0.39479493  0.94913940  0.15984609    -0.88740
H891        H  0.32410725  0.83916786  0.06527917     0.35350
H892        H  0.28947807  0.84871204  0.09046851     0.40450
H893        H  0.42118436  0.94167532  0.15766706     0.40070
H894        H  0.38911644  0.94951103  0.18675381     0.34960
C895        C  0.61976021  0.88923399  0.82351849    -0.26770
C896        C  0.62319306  0.85309919  0.83099432    -0.14840
C897        C  0.60533570  0.83920258  0.86066044     0.35790
C898        C  0.58457430  0.86157590  0.88153265    -0.26220
C899        C  0.58112673  0.89756610  0.87389310    -0.15460
C900        C  0.59934465  0.91164003  0.84469651     0.36870
N901        N  0.59649485  0.94837137  0.83596657    -0.89710
H902        H  0.63340145  0.90036416  0.80112371     0.17980
H903        H  0.57099225  0.85074159  0.90412883     0.17980
N904        N  0.60823859  0.80257497  0.86979915    -0.88740
H905        H  0.60881121  0.95363850  0.81194842     0.35350
H906        H  0.61063180  0.96244957  0.85488256     0.40450
H907        H  0.59497172  0.78819305  0.85047787     0.40070
H908        H  0.59530547  0.79731931  0.89349281     0.34960
C909        C  0.60932569  0.10698124  0.87427022    -0.26770
C910        C  0.62477997  0.08112436  0.89550401    -0.14840
C911        C  0.66178934  0.07750727  0.89617791     0.35790
C912        C  0.68236485  0.09987382  0.87534432    -0.26220
C913        C  0.66697611  0.12573173  0.85390383    -0.15460
C914        C  0.62986570  0.12969239  0.85381620     0.36870
N915        N  0.61211610  0.15738067  0.83506318    -0.89710
H916        H  0.58097679  0.11016883  0.87430279     0.17980
H917        H  0.71070186  0.09664164  0.87550388     0.17980
N918        N  0.67935359  0.05106639  0.91682201    -0.88740
H919        H  0.59839306  0.14592605  0.81417326     0.35350
H920        H  0.62947372  0.17586443  0.82464328     0.40450
H921        H  0.66162394  0.03525447  0.93055625     0.40070
H922        H  0.69467041  0.06401870  0.93562891     0.34960
C923        C  0.34477864  0.86584178  0.88101825    -0.26770
C924        C  0.35429405  0.83041552  0.87624184    -0.14840
C925        C  0.38499622  0.81754667  0.89296784     0.35790
C926        C  0.40552702  0.84047823  0.91351459    -0.26220
C927        C  0.39581390  0.87574928  0.91832611    -0.15460
C928        C  0.36529603  0.88879432  0.90131237     0.36870
N929        N  0.35474095  0.92516052  0.90305196    -0.89710
H930        H  0.32161565  0.87621467  0.86800320     0.17980
H931        H  0.42889885  0.83058843  0.92653417     0.17980
N932        N  0.39492791  0.78117112  0.88965896    -0.88740
H933        H  0.35490141  0.93508606  0.87739001     0.35350
H934        H  0.37269306  0.94047662  0.91698904     0.40450
H935        H  0.37544263  0.76610684  0.90189991     0.40070
H936        H  0.41832729  0.77616294  0.90323140     0.34960
C937        C  0.13520523  0.13773867  0.63121036    -0.26770
C938        C  0.16281421  0.12336940  0.65107084    -0.14840
C939        C  0.17200041  0.08750203  0.64653530     0.35790
C940        C  0.15263528  0.06682322  0.62295674    -0.26220
C941        C  0.12493099  0.08115868  0.60328545    -0.15460
C942        C  0.11627128  0.11703904  0.60713648     0.36870
N943        N  0.08772131  0.13202657  0.58732488    -0.89710
H944        H  0.12832403  0.16521571  0.63465845     0.17980
H945        H  0.15910442  0.03917029  0.62017459     0.17980
N946        N  0.19958272  0.07070848  0.66628652    -0.88740
H947        H  0.08489626  0.15878060  0.59312416     0.35350
H948        H  0.06452105  0.11974100  0.59551435     0.40450
H949        H  0.21109559  0.08761906  0.68452701     0.40070
H950        H  0.21927603  0.06339702  0.64852218     0.34960
C951        C  0.13832199  0.13297824  0.42804922    -0.26770
C952        C  0.10407998  0.12395013  0.41722926    -0.14840
C953        C  0.09156482  0.13676144  0.38448706     0.35790
C954        C  0.11304707  0.15898681  0.36425049    -0.26220
C955        C  0.14715068  0.16773162  0.37514886    -0.15460
C956        C  0.15997660  0.15460927  0.40736737     0.36870
N957        N  0.19467666  0.16379729  0.41928353    -0.89710
H958        H  0.14827546  0.12339740  0.45297354     0.17980
H959        H  0.10348106  0.16875508  0.33922353     0.17980
N960        N  0.05745699  0.12685189  0.37145904    -0.88740
H961        H  0.20019025  0.15176949  0.44340329     0.35350
H962        H  0.19499078  0.19094631  0.42377210     0.40450
H963        H  0.05826036  0.09989688  0.36595362     0.40070
H964        H  0.05202919  0.13945335  0.34761036     0.34960
C965        C  0.84262278  0.86418907  0.61543505    -0.26770
C966        C  0.85558656  0.83108292  0.62582321    -0.14840
C967        C  0.88977181  0.82091455  0.61478206     0.35790
C968        C  0.90949570  0.84371903  0.59338395    -0.26220
C969        C  0.89633206  0.87658497  0.58302968    -0.15460
C970        C  0.86263120  0.88723126  0.59484132     0.36870
N971        N  0.84848759  0.92173218  0.58829836    -0.89710
H972        H  0.81692511  0.87288520  0.62421006     0.17980
H973        H  0.93536691  0.83566828  0.58448857     0.17980
N974        N  0.90433879  0.78740068  0.62468526    -0.88740
H975        H  0.82816587  0.91916504  0.56991507     0.35350
H976        H  0.86713691  0.93898241  0.57806995     0.40450
H977        H  0.91044882  0.78869722  0.65146483     0.40070
H978        H  0.92818870  0.78290979  0.61174464     0.34960
C979        C  0.89623313  0.09325647  0.35206657    -0.26770
C980        C  0.91914995  0.10688435  0.37769119    -0.14840
C981        C  0.91981044  0.14370783  0.38358043     0.35790
C982        C  0.89836099  0.16580973  0.36332650    -0.26220
C983        C  0.87578013  0.15233150  0.33753496    -0.15460
C984        C  0.87465467  0.11557510  0.33175469     0.36870
N985        N  0.85077762  0.10087417  0.30638114    -0.89710
H986        H  0.89532980  0.06510113  0.34765104     0.17980
H987        H  0.89908282  0.19394902  0.36795958     0.17980
N988        N  0.94158632  0.15866176  0.41067586    -0.88740
H989        H  0.85130571  0.07337686  0.30743758     0.35350
H990        H  0.85999685  0.10769195  0.28139933     0.40450
H991        H  0.93182425  0.14994989  0.43487047     0.40070
H992        H  0.93957878  0.18611092  0.41090101     0.34960
C993        C  0.06828933  0.88135991  0.65576779    -0.26770
C994        C  0.08198638  0.89549853  0.62458367    -0.14840
C995        C  0.11719837  0.88870229  0.61514369     0.35790
C996        C  0.13816809  0.86771715  0.63724395    -0.26220
C997        C  0.12459497  0.85400151  0.66864512    -0.15460
C998        C  0.08952043  0.86103821  0.67825907     0.36870
N999        N  0.07558828  0.84716033  0.71055198    -0.89710
H1000       H  0.04120386  0.88675860  0.66283955     0.17980
H1001       H  0.16519600  0.86211951  0.63008789     0.17980
N1002       N  0.13130763  0.90286408  0.58303454    -0.88740
H1003       H  0.04919739  0.85434296  0.71348849     0.35350
H1004       H  0.08925016  0.85899294  0.73127917     0.40450
H1005       H  0.11751691  0.89149604  0.56213116     0.40070
H1006       H  0.15763458  0.89548455  0.58001066     0.34960
C1007       C  0.81964972  0.90838676  0.36489606    -0.26770
C1008       C  0.83256073  0.87559252  0.35410626    -0.14840
C1009       C  0.86617172  0.86445577  0.36498743     0.35790
C1010       C  0.88634998  0.88653220  0.38671859    -0.26220
C1011       C  0.87363384  0.91956764  0.39723860    -0.15460
C1012       C  0.83991356  0.93077581  0.38603321     0.36870
N1013       N  0.82504334  0.96409599  0.39613126    -0.89710
H1014       H  0.79365809  0.91674951  0.35664252     0.17980
H1015       H  0.91225366  0.87814551  0.39521934     0.17980
N1016       N  0.87951429  0.83077934  0.35403225    -0.88740
H1017       H  0.82207828  0.97916692  0.37330082     0.35350
H1018       H  0.84163247  0.97816135  0.41284396     0.40450
H1019       H  0.86339762  0.81140399  0.36505211     0.40070
H1020       H  0.90476200  0.82665025  0.36414107     0.34960
C1021       C  0.09173383  0.63604725  0.18067662    -0.26770
C1022       C  0.12494980  0.64615159  0.16830514    -0.14840
C1023       C  0.13630027  0.63477272  0.13470604     0.35790
C1024       C  0.11407248  0.61341037  0.11451057    -0.26220
C1025       C  0.08067624  0.60365971  0.12670098    -0.15460
C1026       C  0.06930782  0.61506760  0.16027221     0.36870
N1027       N  0.03552284  0.60584799  0.17461064    -0.89710
H1028       H  0.08304524  0.64472044  0.20641548     0.17980
H1029       H  0.12286142  0.60456088  0.08886039     0.17980
N1030       N  0.17029527  0.64351657  0.12056174    -0.88740
H1031       H  0.03993074  0.59088254  0.19727768     0.35350
H1032       H  0.02110659  0.58993495  0.15754443     0.40450
H1033       H  0.18523258  0.65848610  0.13802410     0.40070
H1034       H  0.16626377  0.65905322  0.09821198     0.34960
C1035       C  0.15834128  0.36406638  0.11439326    -0.26770
C1036       C  0.16953487  0.37651919  0.14725025    -0.14840
C1037       C  0.15900104  0.41049978  0.15835673     0.35790
C1038       C  0.13721408  0.43068203  0.13654931    -0.26220
C1039       C  0.12609411  0.41844461  0.10343958    -0.15460
C1040       C  0.13688063  0.38450221  0.09229096     0.36870
N1041       N  0.12551306  0.37035526  0.05909685    -0.89710
H1042       H  0.16622403  0.33796127  0.10599563     0.17980
H1043       H  0.12960431  0.45669053  0.14543787     0.17980
N1044       N  0.17108511  0.42632103  0.19050838    -0.88740
H1045       H  0.13300031  0.34397928  0.05666422     0.35350
H1046       H  0.13903342  0.38387581  0.03933621     0.40450
H1047       H  0.19117202  0.41191676  0.20243287     0.40070
H1048       H  0.14983174  0.42731265  0.20789786     0.34960
C1049       C  0.15699150  0.37407130  0.88072884    -0.26770
C1050       C  0.15143721  0.33783604  0.87546022    -0.14840
C1051       C  0.12127495  0.32198449  0.89076307     0.35790
C1052       C  0.09852465  0.34249291  0.91172428    -0.26220
C1053       C  0.10493527  0.37837167  0.91740008    -0.15460
C1054       C  0.13412562  0.39449790  0.90096125     0.36870
N1055       N  0.14084810  0.43171385  0.90297993    -0.89710
H1056       H  0.17923222  0.38713392  0.86861499     0.17980
H1057       H  0.07590045  0.33034503  0.92409953     0.17980
N1058       N  0.11387617  0.28526133  0.88547091    -0.88740
H1059       H  0.16372856  0.43529982  0.91781976     0.35350
H1060       H  0.12063406  0.44545106  0.91540782     0.40450
H1061       H  0.10687825  0.28201011  0.85907417     0.40070
H1062       H  0.09195217  0.27755301  0.90017224     0.34960
C1063       C  0.87416348  0.60991536  0.10634711    -0.26770
C1064       C  0.89601438  0.62575388  0.08126963    -0.14840
C1065       C  0.89689444  0.66284600  0.07843875     0.35790
C1066       C  0.87573796  0.68309754  0.10083618    -0.26220
C1067       C  0.85375790  0.66733259  0.12599349    -0.15460
C1068       C  0.85341188  0.63012257  0.12912830     0.36870
N1069       N  0.83416601  0.61189394  0.15611772    -0.89710
H1070       H  0.87398379  0.58148990  0.10892920     0.17980
H1071       H  0.87615429  0.71151263  0.09824289     0.17980
N1072       N  0.91807657  0.68083733  0.05276174    -0.88740
H1073       H  0.81354473  0.59832150  0.14402639     0.35350
H1074       H  0.82332111  0.62894064  0.17465282     0.40450
H1075       H  0.93198237  0.66334022  0.03682763     0.40070
H1076       H  0.93673700  0.69577195  0.06635638     0.34960
C1077       C  0.87317485  0.57594650  0.86120255    -0.26770
C1078       C  0.87362890  0.58108717  0.89784596    -0.14840
C1079       C  0.85283634  0.60844148  0.91234866     0.35790
C1080       C  0.83224031  0.62950796  0.88999975    -0.26220
C1081       C  0.83172595  0.62424695  0.85342883    -0.15460
C1082       C  0.85289458  0.59729825  0.83883063     0.36870
N1083       N  0.85340626  0.59108313  0.80151023    -0.89710
H1084       H  0.88918738  0.55537686  0.84967388     0.17980
H1085       H  0.81642305  0.65032812  0.90136888     0.17980
N1086       N  0.85243382  0.61487626  0.94962645    -0.88740
H1087       H  0.86774310  0.56834205  0.79561222     0.35350
H1088       H  0.86717649  0.61186469  0.78989302     0.40450
H1089       H  0.84004845  0.59341473  0.96157227     0.40070
H1090       H  0.83713853  0.63695656  0.95561494     0.34960
C1091       C  0.88763705  0.40941532  0.86110966    -0.26770
C1092       C  0.91884600  0.39501291  0.87492585    -0.14840
C1093       C  0.92732074  0.35949601  0.86697813     0.35790
C1094       C  0.90425496  0.33946494  0.84617752    -0.26220
C1095       C  0.87343711  0.35411303  0.83221266    -0.15460
C1096       C  0.86485702  0.38939464  0.83999558     0.36870
N1097       N  0.83265973  0.40455821  0.82711410    -0.89710
H1098       H  0.88058936  0.43636900  0.86715592     0.17980
H1099       H  0.91084708  0.31239194  0.84006921     0.17980
N1100       N  0.95933022  0.34377081  0.87965278    -0.88740
H1101       H  0.83036770  0.43081310  0.83503211     0.35350
H1102       H  0.81182353  0.39098529  0.83886252     0.40450
H1103       H  0.98023285  0.35619191  0.86680273     0.40070
H1104       H  0.96068238  0.31719245  0.87264484     0.34960
C1105       C  0.32323125  0.09200430  0.36292937    -0.26770
C1106       C  0.33328375  0.12613927  0.35319252    -0.14840
C1107       C  0.36473992  0.14066711  0.36673136     0.35790
C1108       C  0.38464968  0.12108241  0.39068202    -0.26220
C1109       C  0.37447350  0.08710030  0.40090967    -0.15460
C1110       C  0.34370011  0.07212583  0.38652591     0.36870
N1111       N  0.33285980  0.03732276  0.39662768    -0.89710
H1112       H  0.29906747  0.08108441  0.35246908     0.17980
H1113       H  0.40845365  0.13257591  0.40137423     0.17980
N1114       N  0.37681956  0.17542083  0.35774736    -0.88740
H1115       H  0.30978854  0.03020422  0.38346434     0.35350
H1116       H  0.32673412  0.03796770  0.42342982     0.40450
H1117       H  0.35992365  0.18810864  0.34025081     0.40070
H1118       H  0.40092047  0.17271442  0.34477176     0.34960
C1119       C  0.61981433  0.85181338  0.42957978    -0.26770
C1120       C  0.59906571  0.87655217  0.41144125    -0.14840
C1121       C  0.60372423  0.88053452  0.37464626     0.35790
C1122       C  0.62784744  0.85893866  0.35696475    -0.26220
C1123       C  0.64741128  0.83348444  0.37491085    -0.15460
C1124       C  0.64389880  0.83015961  0.41178496     0.36870
N1125       N  0.66348562  0.80471896  0.43184169    -0.89710
H1126       H  0.61678642  0.84868674  0.45775119     0.17980
H1127       H  0.63097112  0.86152450  0.32873034     0.17980
N1128       N  0.58455894  0.90683349  0.35528755    -0.88740
H1129       H  0.67947165  0.81856470  0.44941932     0.35350
H1130       H  0.68031632  0.78997113  0.41593926     0.40450
H1131       H  0.55880511  0.89769907  0.35231258     0.40070
H1132       H  0.59457452  0.90930544  0.32979041     0.34960
C1133       C  0.62835911  0.14649830  0.63301705    -0.26770
C1134       C  0.62399257  0.14518634  0.66967019    -0.14840
C1135       C  0.59897818  0.12170809  0.68419330     0.35790
C1136       C  0.57973417  0.09955367  0.66199054    -0.26220
C1137       C  0.58544658  0.09976431  0.62563291    -0.15460
C1138       C  0.60950760  0.12371894  0.61083154     0.36870
N1139       N  0.61496485  0.12441203  0.57341616    -0.89710
H1140       H  0.64734726  0.16455207  0.62177864     0.17980
H1141       H  0.56093152  0.08133267  0.67327782     0.17980
N1142       N  0.59214240  0.12015343  0.72122222    -0.88740
H1143       H  0.63374174  0.14337258  0.56675986     0.35350
H1144       H  0.59135544  0.13230909  0.56169874     0.40450
H1145       H  0.58570061  0.14542365  0.73000494     0.40070
H1146       H  0.61483358  0.11166173  0.73418413     0.34960
C1147       C  0.65769225  0.90098441  0.58595435    -0.26770
C1148       C  0.62601670  0.91471748  0.59857052    -0.14840
C1149       C  0.61672797  0.90948739  0.63425025     0.35790
C1150       C  0.63937816  0.89020044  0.65615989    -0.26220
C1151       C  0.67097731  0.87559666  0.64344089    -0.15460
C1152       C  0.68028830  0.88152027  0.60770666     0.36870
N1153       N  0.71237135  0.86763550  0.59320830    -0.89710
H1154       H  0.66463547  0.90510475  0.55860025     0.17980
H1155       H  0.63158506  0.88589487  0.68323465     0.17980
N1156       N  0.58397489  0.92163768  0.64881518    -0.88740
H1157       H  0.71664112  0.87733490  0.56782306     0.35350
H1158       H  0.70904583  0.84046255  0.59044295     0.40450
H1159       H  0.56812297  0.93382664  0.63004911     0.40070
H1160       H  0.58983647  0.94055443  0.66791059     0.34960
C1161       C  0.40939311  0.14424307  0.61607049    -0.26770
C1162       C  0.39952404  0.12589134  0.58550810    -0.14840
C1163       C  0.36394661  0.12706948  0.57436221     0.35790
C1164       C  0.33908979  0.14527599  0.59483224    -0.26220
C1165       C  0.34915475  0.16328939  0.62531313    -0.15460
C1166       C  0.38461789  0.16302956  0.63599208     0.36870
N1167       N  0.39511801  0.18101828  0.66757345    -0.89710
H1168       H  0.43653987  0.14361256  0.62473221     0.17980
H1169       H  0.31173115  0.14573180  0.58681980     0.17980
N1170       N  0.35281819  0.10896114  0.54307765    -0.88740
H1171       H  0.42217495  0.17832060  0.67171937     0.35350
H1172       H  0.38268586  0.16863767  0.68876007     0.40450
H1173       H  0.36324845  0.12256176  0.52156886     0.40070
H1174       H  0.32548726  0.11031117  0.54029226     0.34960
C1175       C  0.39876783  0.87199457  0.38858751    -0.26770
C1176       C  0.41387314  0.90203090  0.37351540    -0.14840
C1177       C  0.41038870  0.90803411  0.33701387     0.35790
C1178       C  0.39112476  0.88416388  0.31663903    -0.26220
C1179       C  0.37527943  0.85426416  0.33161373    -0.15460
C1180       C  0.37966169  0.84783279  0.36807638     0.36870
N1181       N  0.36359351  0.81778504  0.38452718    -0.89710
H1182       H  0.40153878  0.86764772  0.41663584     0.17980
H1183       H  0.38837565  0.88925415  0.28872020     0.17980
N1184       N  0.42598010  0.93785092  0.31966848    -0.88740
H1185       H  0.36695409  0.81871122  0.41180908     0.35350
H1186       H  0.37719926  0.79544037  0.37601377     0.40450
H1187       H  0.44039058  0.95349796  0.33699868     0.40070
H1188       H  0.40553725  0.95350371  0.30995187     0.34960
C1189       C  0.38169668  0.65572070  0.86620898    -0.26770
C1190       C  0.37503298  0.64474011  0.83153449    -0.14840
C1191       C  0.38997550  0.61271054  0.81956382     0.35790
C1192       C  0.41122459  0.59286701  0.84242756    -0.26220
C1193       C  0.41777495  0.60399889  0.87692462    -0.15460
C1194       C  0.40235490  0.63564191  0.88916496     0.36870
N1195       N  0.40544093  0.64745049  0.92497839    -0.89710
H1196       H  0.36991541  0.67976827  0.87605032     0.17980
H1197       H  0.42303419  0.56859688  0.83317992     0.17980
N1198       N  0.38447153  0.60076427  0.78409874    -0.88740
H1199       H  0.42071777  0.67033781  0.92498196     0.35350
H1200       H  0.41790919  0.62907971  0.94106465     0.40450
H1201       H  0.35855391  0.59176938  0.78238156     0.40070
H1202       H  0.40033795  0.57894673  0.77864045     0.34960
C1203       C  0.36607597  0.35884513  0.06780381    -0.26770
C1204       C  0.39597948  0.37490353  0.08249832    -0.14840
C1205       C  0.40404213  0.36871078  0.11834984     0.35790
C1206       C  0.38222440  0.34651125  0.13826051    -0.26220
C1207       C  0.35260360  0.33039711  0.12338688    -0.15460
C1208       C  0.34445011  0.33654899  0.08760052     0.36870
N1209       N  0.31558336  0.31963648  0.06994832    -0.89710
H1210       H  0.35972673  0.36304297  0.04032572     0.17980
H1211       H  0.38818699  0.34195004  0.16577621     0.17980
N1212       N  0.43352463  0.38572327  0.13485422    -0.88740
H1213       H  0.29727785  0.33908895  0.06332413     0.35350
H1214       H  0.30278144  0.30141973  0.08595595     0.40450
H1215       H  0.45634384  0.37363317  0.12541451     0.40070
H1216       H  0.43337156  0.38123730  0.16199249     0.34960
C1217       C  0.61471000  0.59090549  0.13790435    -0.26770
C1218       C  0.62599196  0.58179931  0.10400884    -0.14840
C1219       C  0.65823338  0.59499686  0.09135587     0.35790
C1220       C  0.67867277  0.61681997  0.11306715    -0.26220
C1221       C  0.66754497  0.62607156  0.14716605    -0.15460
C1222       C  0.63466171  0.61340666  0.15938957     0.36870
N1223       N  0.62119855  0.62376630  0.19319213    -0.89710
H1224       H  0.58960051  0.58120690  0.14728610     0.17980
H1225       H  0.70366243  0.62636283  0.10327771     0.17980
N1226       N  0.67041185  0.58571355  0.05677003    -0.88740
H1227       H  0.59722249  0.61134986  0.19840293     0.35350
H1228       H  0.61582237  0.65074209  0.19201685     0.40450
H1229       H  0.67506059  0.55858390  0.05658974     0.40070
H1230       H  0.69448750  0.59783935  0.05135413     0.34960
C1231       C  0.61721247  0.39839231  0.12178936    -0.26770
C1232       C  0.58062265  0.39696760  0.12633784    -0.14840
C1233       C  0.56615037  0.37269767  0.15043355     0.35790
C1234       C  0.58856570  0.34959204  0.16868744    -0.26220
C1235       C  0.62497757  0.35007302  0.16300996    -0.15460
C1236       C  0.63959461  0.37503641  0.13952928     0.36870
N1237       N  0.67681428  0.37774616  0.13323612    -0.89710
H1238       H  0.62845878  0.41707973  0.10341044     0.17980
H1239       H  0.57755833  0.33063111  0.18692174     0.17980
N1240       N  0.52879880  0.37163541  0.15622860    -0.88740
H1241       H  0.68133434  0.37105041  0.10694771     0.35350
H1242       H  0.69121718  0.36009291  0.14855364     0.40450
H1243       H  0.52139843  0.39571242  0.16730435     0.40070
H1244       H  0.52241151  0.35219786  0.17462185     0.34960
C1245       C  0.59895649  0.62540676  0.88276564    -0.26770
C1246       C  0.60360591  0.62670037  0.91936330    -0.14840
C1247       C  0.62953890  0.64913731  0.93364503     0.35790
C1248       C  0.65055470  0.66943254  0.91094153    -0.26220
C1249       C  0.64587365  0.66805790  0.87440075    -0.15460
C1250       C  0.62002626  0.64539713  0.86004270     0.36870
N1251       N  0.61477970  0.64142725  0.82275667    -0.89710
H1252       H  0.57935632  0.60795996  0.87161325     0.17980
H1253       H  0.67030028  0.68689396  0.92179691     0.17980
N1254       N  0.63393233  0.65176915  0.97111338    -0.88740
H1255       H  0.62036883  0.61524631  0.81635402     0.35350
H1256       H  0.63227677  0.65673114  0.80819396     0.40450
H1257       H  0.61078698  0.66246571  0.98144486     0.40070
H1258       H  0.65412939  0.66938557  0.97728133     0.34960
C1259       C  0.32889554  0.37790814  0.88249974    -0.26770
C1260       C  0.33942840  0.37561019  0.84707895    -0.14840
C1261       C  0.36867821  0.39563819  0.83564600     0.35790
C1262       C  0.38627697  0.41740341  0.85961108    -0.26220
C1263       C  0.37624249  0.41928428  0.89507120    -0.15460
C1264       C  0.34713346  0.39932097  0.90669680     0.36870
N1265       N  0.33597184  0.40105377  0.94277754    -0.89710
H1266       H  0.30658469  0.36261093  0.89145834     0.17980
H1267       H  0.40876609  0.43239920  0.85057440     0.17980
N1268       N  0.38025193  0.39445253  0.79963230    -0.88740
H1269       H  0.31443468  0.38450238  0.94706092     0.35350
H1270       H  0.32722620  0.42671331  0.94753362     0.40450
H1271       H  0.39317319  0.37043708  0.79595640     0.40070
H1272       H  0.39913122  0.41386451  0.79481220     0.34960
C1273       C  0.08568483  0.35991569  0.38279877    -0.26770
C1274       C  0.08110834  0.39563538  0.37458431    -0.14840
C1275       C  0.09881709  0.40988117  0.34522397     0.35790
C1276       C  0.12043360  0.38802222  0.32468674    -0.26220
C1277       C  0.12508381  0.35213301  0.33274528    -0.15460
C1278       C  0.10783657  0.33813618  0.36272895     0.36870
N1279       N  0.11291394  0.30206993  0.37308026    -0.89710
H1280       H  0.07257230  0.34907836  0.40567019     0.17980
H1281       H  0.13354663  0.39923430  0.30201719     0.17980
N1282       N  0.09441327  0.44632493  0.33595387    -0.88740
H1283       H  0.09707764  0.29574471  0.39465653     0.35350
H1284       H  0.13892055  0.29954560  0.38169099     0.40450
H1285       H  0.06815645  0.44993015  0.32858648     0.40070
H1286       H  0.10965672  0.45273182  0.31398177     0.34960
C1287       C  0.90476628  0.63353856  0.61303080    -0.26770
C1288       C  0.91925266  0.60263686  0.62706532    -0.14840
C1289       C  0.91167418  0.59328628  0.66230481     0.35790
C1290       C  0.88957109  0.61493974  0.68230146    -0.26220
C1291       C  0.87519739  0.64612263  0.66846295    -0.15460
C1292       C  0.88285925  0.65543781  0.63319585     0.36870
N1293       N  0.86765251  0.68634994  0.61747548    -0.89710
H1294       H  0.91037092  0.64047491  0.58594223     0.17980
H1295       H  0.88427517  0.60759450  0.70933812     0.17980
N1296       N  0.92703344  0.56317775  0.67935864    -0.88740
H1297       H  0.87295503  0.68713032  0.59049993     0.35350
H1298       H  0.88039576  0.70820344  0.62824306     0.40450
H1299       H  0.94594230  0.55080480  0.66383120     0.40070
H1300       H  0.90692039  0.54502233  0.68404335     0.34960
C1301       C  0.11205467  0.67972695  0.61492961    -0.26770
C1302       C  0.14640695  0.66879556  0.62348687    -0.14840
C1303       C  0.15870569  0.63618492  0.61000694     0.35790
C1304       C  0.13649408  0.61576633  0.58861575    -0.26220
C1305       C  0.10223325  0.62673033  0.58041594    -0.15460
C1306       C  0.08995420  0.65915564  0.59390075     0.36870
N1307       N  0.05556793  0.67244013  0.58599586    -0.89710
H1308       H  0.10203776  0.70457404  0.62469652     0.17980
H1309       H  0.14592026  0.59081118  0.57851132     0.17980
N1310       N  0.19333333  0.62340118  0.61836588    -0.88740
H1311       H  0.03679484  0.65539917  0.59657261     0.35350
H1312       H  0.05255398  0.67338568  0.55867538     0.40450
H1313       H  0.21137331  0.63913455  0.60483384     0.40070
H1314       H  0.19690838  0.59783680  0.60882848     0.34960
C1315       C  0.84703950  0.36090223  0.61677145    -0.26770
C1316       C  0.83144127  0.37485456  0.64709222    -0.14840
C1317       C  0.83824225  0.40995858  0.65679171     0.35790
C1318       C  0.86054942  0.43058320  0.63573953    -0.26220
C1319       C  0.87622820  0.41676908  0.60520994    -0.15460
C1320       C  0.86988181  0.38122032  0.59602587     0.36870
N1321       N  0.88718683  0.36559045  0.56622871    -0.89710
H1322       H  0.84208671  0.33368932  0.60980909     0.17980
H1323       H  0.86526415  0.45775893  0.64294993     0.17980
N1324       N  0.82193789  0.42467442  0.68757764    -0.88740
H1325       H  0.87939796  0.33939379  0.56304685     0.35350
H1326       H  0.91415369  0.36507012  0.57164110     0.40450
H1327       H  0.79478387  0.42509365  0.68321792     0.40070
H1328       H  0.82970624  0.45083470  0.69108091     0.34960
C1329       C  0.14384876  0.60251460  0.33835314    -0.26770
C1330       C  0.16785172  0.62541185  0.35466172    -0.14840
C1331       C  0.16893406  0.62672807  0.39192266     0.35790
C1332       C  0.14647138  0.60496862  0.41159716    -0.26220
C1333       C  0.12299492  0.58160770  0.39527206    -0.15460
C1334       C  0.12129780  0.58086423  0.35807266     0.36870
N1335       N  0.09640727  0.55860780  0.34028898    -0.89710
H1336       H  0.14247723  0.60152842  0.30990996     0.17980
H1337       H  0.14779063  0.60594838  0.44004483     0.17980
N1338       N  0.19229220  0.65043668  0.40990573    -0.88740
H1339       H  0.09921058  0.56060280  0.31300206     0.35350
H1340       H  0.07123671  0.56801062  0.34620160     0.40450
H1341       H  0.21778810  0.64049951  0.40712183     0.40070
H1342       H  0.18717911  0.65056127  0.43692904     0.34960
C1343       C  0.90505825  0.34521486  0.40458610    -0.26770
C1344       C  0.89397427  0.37717056  0.41942823    -0.14840
C1345       C  0.86011905  0.39022450  0.41109886     0.35790
C1346       C  0.83797301  0.37085998  0.38928493    -0.26220
C1347       C  0.84836330  0.33835786  0.37509620    -0.15460
C1348       C  0.88264991  0.32558724  0.38246593     0.36870
N1349       N  0.89482179  0.29312570  0.36730753    -0.89710
H1350       H  0.93119670  0.33544698  0.41045563     0.17980
H1351       H  0.81211432  0.38147881  0.38363686     0.17980
N1352       N  0.84776089  0.42370306  0.42335206    -0.88740
H1353       H  0.92024093  0.28723407  0.37602207     0.35350
H1354       H  0.89658819  0.29686274  0.34011406     0.40450
H1355       H  0.86603134  0.44303334  0.41634934     0.40070
H1356       H  0.84521208  0.42294370  0.45068736     0.34960
C1357       C  0.38395511  0.61259153  0.38342173    -0.26770
C1358       C  0.40099257  0.62619886  0.41322979    -0.14840
C1359       C  0.39339771  0.66104892  0.42427976     0.35790
C1360       C  0.36979052  0.68150129  0.40459283    -0.26220
C1361       C  0.35312057  0.66792234  0.37466225    -0.15460
C1362       C  0.35989478  0.63303019  0.36413283     0.36870
N1363       N  0.34299462  0.61883666  0.33341675    -0.89710
H1364       H  0.38962469  0.58590448  0.37507735     0.17980
H1365       H  0.36476920  0.70846123  0.41247136     0.17980
N1366       N  0.41020740  0.67727468  0.45402894    -0.88740
H1367       H  0.35069984  0.59272846  0.32935561     0.35350
H1368       H  0.35184966  0.63311849  0.31163827     0.40450
H1369       H  0.42929113  0.66117481  0.46534430     0.40070
H1370       H  0.39089772  0.68169389  0.47312410     0.34960
C1371       C  0.58988543  0.36237240  0.62162353    -0.26770
C1372       C  0.59892034  0.37419191  0.58775583    -0.14840
C1373       C  0.63223781  0.36472759  0.57371363     0.35790
C1374       C  0.65526066  0.34370369  0.59385638    -0.26220
C1375       C  0.64540804  0.33130913  0.62713805    -0.15460
C1376       C  0.61270932  0.34132075  0.64143266     0.36870
N1377       N  0.60303108  0.33051100  0.67639631    -0.89710
H1378       H  0.56476931  0.36959989  0.63297072     0.17980
H1379       H  0.68058821  0.33614476  0.58317464     0.17980
N1380       N  0.64286556  0.37654252  0.53939491    -0.88740
H1381       H  0.57804306  0.33994309  0.68298203     0.35350
H1382       H  0.62068960  0.34225465  0.69391118     0.40450
H1383       H  0.62750554  0.36312129  0.52095633     0.40070
H1384       H  0.66890254  0.36928217  0.53428688     0.34960
C1385       C  0.38385711  0.38525034  0.60983459    -0.26770
C1386       C  0.41281501  0.40145396  0.62586990    -0.14840
C1387       C  0.42229441  0.39162414  0.66058024     0.35790
C1388       C  0.40237746  0.36588803  0.67819038    -0.26220
C1389       C  0.37365418  0.34933176  0.66185030    -0.15460
C1390       C  0.36422936  0.35932730  0.62729857     0.36870
N1391       N  0.33429595  0.34366247  0.61027160    -0.89710
H1392       H  0.37657752  0.39283981  0.58331920     0.17980
H1393       H  0.40952537  0.35866549  0.70483373     0.17980
N1394       N  0.45085176  0.40789892  0.67927422    -0.88740
H1395       H  0.33122436  0.35362357  0.58481273     0.35350
H1396       H  0.31187472  0.35114073  0.62434235     0.40450
H1397       H  0.46259071  0.42795740  0.66471490     0.40070
H1398       H  0.47005814  0.38864822  0.68354646     0.34960
C1399       C  0.59256170  0.65314083  0.33987289    -0.26770
C1400       C  0.62827395  0.64639972  0.33359461    -0.14840
C1401       C  0.64420755  0.61649958  0.34897455     0.35790
C1402       C  0.62377000  0.59334262  0.36879648    -0.26220
C1403       C  0.58772104  0.59928177  0.37475266    -0.15460
C1404       C  0.57205129  0.63007644  0.36048716     0.36870
N1405       N  0.53555235  0.63787467  0.36660954    -0.89710
H1406       H  0.58055065  0.67626397  0.32825157     0.17980
H1407       H  0.63670898  0.57055281  0.38005113     0.17980
N1408       N  0.68127628  0.60928081  0.34627256    -0.88740
H1409       H  0.52796603  0.66044003  0.35279285     0.35350
H1410       H  0.53279420  0.64396183  0.39328437     0.40450
H1411       H  0.69517946  0.62976021  0.33447878     0.40070
H1412       H  0.68437330  0.58690731  0.33056522     0.34960
C1413       C  0.36092510  0.57234203  0.62783739    -0.26770
C1414       C  0.37515997  0.58978527  0.59838318    -0.14840
C1415       C  0.36766463  0.62609654  0.59368566     0.35790
C1416       C  0.34502913  0.64316028  0.61720732    -0.26220
C1417       C  0.33061726  0.62564554  0.64616504    -0.15460
C1418       C  0.33883687  0.58974591  0.65183311     0.36870
N1419       N  0.32483158  0.56987612  0.68084640    -0.89710
H1420       H  0.36660957  0.54473164  0.63218226     0.17980
H1421       H  0.33909486  0.67081477  0.61332884     0.17980
N1422       N  0.38308768  0.64585144  0.56531936    -0.88740
H1423       H  0.30959972  0.54950565  0.67038314     0.35350
H1424       H  0.30786040  0.58490286  0.69627840     0.40450
H1425       H  0.41001269  0.64798591  0.57051981     0.40070
H1426       H  0.37334464  0.67159189  0.56474344     0.34960
C1427       C  0.65864785  0.41831060  0.39647506    -0.26770
C1428       C  0.62235624  0.41260478  0.39978528    -0.14840
C1429       C  0.60547325  0.38846312  0.37707896     0.35790
C1430       C  0.62535829  0.37042166  0.35196089    -0.26220
C1431       C  0.66184403  0.37544489  0.34879829    -0.15460
C1432       C  0.67868933  0.39989965  0.37126731     0.36870
N1433       N  0.71586406  0.40614878  0.36836354    -0.89710
H1434       H  0.67140394  0.43696106  0.41385290     0.17980
H1435       H  0.61198200  0.35182806  0.33499118     0.17980
N1436       N  0.56818194  0.38202165  0.37806784    -0.88740
H1437       H  0.72411059  0.42445929  0.38715354     0.35350
H1438       H  0.72044519  0.41757585  0.34376575     0.40450
H1439       H  0.55528478  0.39786448  0.39636846     0.40070
H1440       H  0.56443828  0.35592319  0.38594222     0.34960
loop_ 
_geom_bond_atom_site_label_1 
_geom_bond_atom_site_label_2 
_geom_bond_distance 
_geom_bond_site_symmetry_2 
_ccdc_geom_bond_type 
O1           Mg3   2.134       .  S
O1           Mg9   2.147       .  S
O1           C36   1.238       .  S
C2           O15   1.237       .  S
C2           O39   1.271       .  A
C2           H41   1.081       .  S
Mg3          O32   2.145       .  S
Mg3          O47   2.318       .  S
Mg3          O43   2.264       .  S
Mg3          O14   2.301       .  S
O4          Mg46   2.145       .  S
O4          Mg29   2.140       .  S
O4           C25   1.238       .  S
O5           C36   1.271       .  A
O5          Mg29   2.296       .  S
C6            O8   1.270       .  A
C6           O20   1.278       .  A
C6         C1414   1.492       .  S
O7           C35   1.270       .  A
O7           Mg9   2.295       .  S
O8          Mg40   2.238       .  S
Mg9          O15   2.132       .  S
Mg9          O23   2.252       .  S
Mg9          O11   2.309       .  S
C10          O48   1.273       .  A
C10          O16   1.277       .  A
C10        C1386   1.478       .  S
O11          C18   1.275       .  A
H12          C25   1.081       .  S
C13          O27   1.237       .  S
C13          O28   1.271       .  A
C13          H38   1.081       .  S
O14          C37   1.272       .  A
O15         Mg29   2.145       .  S
O16         Mg46   2.320       .  S
C17          O30   1.274       .  A
C17          O22   1.275       .  A
C17        C1372   1.491       .  S
C18          O45   1.272       .  A
C18        C1428   1.472       .  S
Mg19         O26   2.142       .  S
Mg19         O27   2.145       .  S
Mg19         O20   2.324       .  S
Mg19         O21   2.299       .  S
Mg19         O48   2.263       .  S
O21          C25   1.271       .  A
O22         Mg29   2.310       .  S
O23          C42   1.273       .  A
O24          C44   1.275       .  A
O24         Mg40   2.310       .  S
O26         Mg40   2.141       .  S
O26          C37   1.238       .  S
O27         Mg46   2.133       .  S
O28         Mg40   2.299       .  S
Mg29         O45   2.265       .  S
O30         Mg46   2.254       .  S
H31          C36   1.081       .  S
O32         Mg40   2.127       .  S
O32          C35   1.237       .  S
H33          C35   1.081       .  S
H34          C37   1.081       .  S
O39         Mg46   2.298       .  S
C42          O47   1.276       .  A
C42        C1403   1.494       .  S
O43          C44   1.272       .  A
C44        C1358   1.477       .  S
O49         Mg51   2.127   1_655  S
O49         Mg57   2.146   1_655  S
O49          C84   1.237       .  S
C50          O63   1.237       .  S
C50          O87   1.271       .  A
C50          H89   1.081   1_655  S
Mg51         O80   2.147       .  S
Mg51         O95   2.304       .  S
Mg51         O91   2.253       .  S
Mg51         O62   2.298       .  S
O52         Mg94   2.146       .  S
O52         Mg77   2.126       .  S
O52          C73   1.236       .  S
O53          C84   1.270       .  A
O53         Mg77   2.296       .  S
C54          O56   1.273       .  A
C54          O68   1.274       .  A
C54        C1305   1.481       .  S
O55          C83   1.272       .  A
O55         Mg57   2.301       .  S
O56         Mg88   2.267       .  S
Mg57         O63   2.135   1_455  S
Mg57         O71   2.261       .  S
Mg57         O59   2.322   1_455  S
C58          O96   1.272       .  A
C58          O64   1.275       .  A
C58        C1288   1.474       .  S
O59          C66   1.277       .  A
H60          C73   1.081       .  S
C61          O75   1.237       .  S
C61          O76   1.271       .  A
C61          H86   1.081       .  S
O62          C85   1.271       .  A
O63         Mg77   2.141       .  S
O64         Mg94   2.304       .  S
C65          O78   1.273       .  A
C65          O70   1.274       .  A
C65        C1319   1.484       .  S
C66          O93   1.270       .  A
C66        C1344   1.479       .  S
Mg67         O74   2.132   1_655  S
Mg67         O75   2.153   1_655  S
Mg67         O68   2.301   1_655  S
Mg67         O69   2.292       .  S
Mg67         O96   2.257       .  S
O69          C73   1.270       .  A
O70         Mg77   2.296       .  S
O71          C90   1.273       .  A
O72          C92   1.277       .  A
O72         Mg88   2.310       .  S
O74         Mg88   2.148       .  S
O74          C85   1.237       .  S
O75         Mg94   2.132   1_455  S
O76         Mg88   2.295       .  S
Mg77         O93   2.242       .  S
O78         Mg94   2.264       .  S
H79          C84   1.081       .  S
O80         Mg88   2.139       .  S
O80          C83   1.238       .  S
H81          C83   1.081       .  S
H82          C85   1.081   1_655  S
O87         Mg94   2.300       .  S
C90          O95   1.275       .  A
C90        C1274   1.483       .  S
O91          C92   1.271       .  A
C92        C1333   1.488       .  S
O97         Mg99   2.134   1_556  S
O97        Mg105   2.149   1_556  S
O97         C132   1.237       .  S
C98         O111   1.238       .  S
C98         O135   1.272       .  A
C98         H137   1.081   1_556  S
Mg99        O128   2.137       .  S
Mg99        O143   2.301       .  S
Mg99        O139   2.261       .  S
Mg99        O110   2.303       .  S
O100       Mg142   2.144       .  S
O100       Mg125   2.130       .  S
O100        C121   1.237       .  S
O101        C132   1.271       .  A
O101       Mg125   2.297       .  S
C102        O104   1.272       .  A
C102        O116   1.275       .  A
C102       C1218   1.478       .  S
O103        C131   1.272       .  A
O103       Mg105   2.303       .  S
O104       Mg136   2.259       .  S
Mg105       O111   2.137   1_554  S
Mg105       O119   2.262       .  S
Mg105       O107   2.322   1_554  S
C106        O144   1.273       .  A
C106        O112   1.277       .  A
C106       C1246   1.480       .  S
O107        C114   1.277       .  A
H108        C121   1.081       .  S
C109        O123   1.237       .  S
C109        O124   1.271       .  A
C109        H134   1.081       .  S
O110        C133   1.272       .  A
O111       Mg125   2.146       .  S
O112       Mg142   2.315       .  S
C113        O126   1.272       .  A
C113        O118   1.275       .  A
C113       C1193   1.473       .  S
C114        O141   1.272       .  A
C114       C1263   1.485       .  S
Mg115       O122   2.138   1_556  S
Mg115       O123   2.145   1_556  S
Mg115       O116   2.300   1_556  S
Mg115       O117   2.297       .  S
Mg115       O144   2.266       .  S
O117        C121   1.270       .  A
O118       Mg125   2.301       .  S
O119        C138   1.273       .  A
O120        C140   1.276       .  A
O120       Mg136   2.316       .  S
O122       Mg136   2.150       .  S
O122        C133   1.238       .  S
O123       Mg142   2.130   1_554  S
O124       Mg136   2.295       .  S
Mg125       O141   2.248       .  S
O126       Mg142   2.258       .  S
H127        C132   1.081       .  S
O128       Mg136   2.138       .  S
O128        C131   1.237       .  S
H129        C131   1.081       .  S
H130        C133   1.081       .  S
O135       Mg142   2.300       .  S
C138        O143   1.274       .  A
C138       C1204   1.486       .  S
O139        C140   1.272       .  A
C140       C1232   1.478       .  S
O145       Mg147   2.125       .  S
O145       Mg153   2.145       .  S
O145        C180   1.237   1_565  S
C146        O159   1.237       .  S
C146        O183   1.271       .  A
C146        H185   1.081   1_545  S
Mg147       O176   2.143       .  S
Mg147       O191   2.309       .  S
Mg147       O187   2.241       .  S
Mg147       O158   2.298       .  S
O148       Mg190   2.147       .  S
O148       Mg173   2.130       .  S
O148        C169   1.237       .  S
O149        C180   1.270       .  A
O149       Mg173   2.291       .  S
C150        O152   1.272       .  A
C150        O164   1.275       .  A
C150       C1148   1.472       .  S
O151        C179   1.271       .  A
O151       Mg153   2.300       .  S
O152       Mg184   2.259       .  S
Mg153       O159   2.132   1_565  S
Mg153       O167   2.261       .  S
Mg153       O155   2.306   1_565  S
C154        O192   1.271       .  A
C154        O160   1.274       .  A
C154       C1137   1.468       .  S
O155        C162   1.275       .  A
H156        C169   1.081       .  S
C157        O171   1.238   1_565  S
C157        O172   1.272       .  A
C157        H182   1.081       .  S
O158        C181   1.271       .  A
O159       Mg173   2.150       .  S
O160       Mg190   2.305       .  S
C161        O174   1.273       .  A
C161        O166   1.274       .  A
C161       C1162   1.486       .  S
C162        O189   1.272       .  A
C162       C1109   1.476       .  S
Mg163       O170   2.136   1_545  S
Mg163       O171   2.148       .  S
Mg163       O164   2.311   1_545  S
Mg163       O165   2.294       .  S
Mg163       O192   2.257       .  S
O165        C169   1.270       .  A
O166       Mg173   2.300       .  S
O167        C186   1.271       .  A
O168        C188   1.278       .  A
O168       Mg184   2.325       .  S
O170       Mg184   2.140       .  S
O170        C181   1.237       .  S
O171       Mg190   2.136       .  S
O172       Mg184   2.304       .  S
Mg173       O189   2.251       .  S
O174       Mg190   2.263       .  S
H175        C180   1.081       .  S
O176       Mg184   2.138       .  S
O176        C179   1.237       .  S
H177        C179   1.081       .  S
H178        C181   1.081   1_545  S
O183       Mg190   2.297       .  S
C186        O191   1.274       .  A
C186       C1176   1.469       .  S
O187        C188   1.270       .  A
C188       C1120   1.486       .  S
O193       Mg195   2.131   1_454  S
O193       Mg201   2.145   1_554  S
O193        C228   1.238       .  S
C194        O207   1.237       .  S
C194        O231   1.270       .  A
C194        H233   1.081       .  S
Mg195       O224   2.149   1_655  S
Mg195       O239   2.313   1_655  S
Mg195       O235   2.252       .  S
Mg195       O206   2.298       .  S
O196       Mg238   2.148   1_655  S
O196       Mg221   2.135   1_655  S
O196        C217   1.237       .  S
O197        C228   1.271       .  A
O197       Mg221   2.299       .  S
C198        O200   1.273       .  A
C198        O212   1.274       .  A
C198       C1078   1.492       .  S
O199        C227   1.270       .  A
O199       Mg201   2.294       .  S
O200       Mg232   2.263       .  S
Mg201       O207   2.131   1_556  S
Mg201       O215   2.256       .  S
Mg201       O203   2.297   1_556  S
C202        O240   1.271       .  A
C202        O208   1.275       .  A
C202       C1064   1.469       .  S
O203        C210   1.274       .  A
H204        C217   1.081       .  S
C205        O219   1.237       .  S
C205        O220   1.271       .  A
C205        H230   1.081       .  S
O206        C229   1.271       .  A
O207       Mg221   2.142       .  S
O208       Mg238   2.307   1_655  S
C209        O222   1.272       .  A
C209        O214   1.276       .  A
C209       C1025   1.471       .  S
C210        O237   1.273       .  A
C210       C1039   1.490       .  S
Mg211       O218   2.135   1_554  S
Mg211       O219   2.151   1_554  S
Mg211       O212   2.301   1_554  S
Mg211       O213   2.296       .  S
Mg211       O240   2.260       .  S
O213        C217   1.271       .  A
O214       Mg221   2.312       .  S
O215        C234   1.272       .  A
O216        C236   1.278       .  A
O216       Mg232   2.314       .  S
O218       Mg232   2.146       .  S
O218        C229   1.237       .  S
O219       Mg238   2.137   1_656  S
O220       Mg232   2.301       .  S
Mg221       O237   2.264       .  S
O222       Mg238   2.265       .  S
H223        C228   1.081       .  S
O224       Mg232   2.130   1_455  S
O224        C227   1.237       .  S
H225        C227   1.081       .  S
H226        C229   1.081       .  S
O231       Mg238   2.298       .  S
C234        O239   1.275       .  A
C234       C1053   1.474       .  S
O235        C236   1.271       .  A
C236       C1092   1.492       .  S
O241       Mg243   2.139   1_445  S
O241       Mg249   2.142   1_455  S
O241        C276   1.238       .  S
C242        O255   1.237       .  S
C242        O279   1.271       .  A
C242        H281   1.081       .  S
Mg243       O272   2.139   1_565  S
Mg243       O287   2.327   1_565  S
Mg243       O283   2.263       .  S
Mg243       O254   2.306       .  S
O244       Mg286   2.134   1_565  S
O244       Mg269   2.131   1_565  S
O244        C265   1.237       .  S
O245        C276   1.272       .  A
O245       Mg269   2.302       .  S
C246        O248   1.272       .  A
C246        O260   1.275       .  A
C246        C969   1.477       .  S
O247        C275   1.270       .  A
O247       Mg249   2.296       .  S
O248       Mg280   2.258       .  S
Mg249       O255   2.126   1_655  S
Mg249       O263   2.238       .  S
Mg249       O251   2.293   1_655  S
C250        O288   1.272       .  A
C250        O256   1.274       .  A
C250        C994   1.471       .  S
O251        C258   1.273       .  A
H252        C265   1.081       .  S
C253        O267   1.238       .  S
C253        O268   1.272       .  A
C253        H278   1.081       .  S
O254        C277   1.272       .  A
O255       Mg269   2.140       .  S
O256       Mg286   2.304   1_565  S
C257        O270   1.271       .  A
C257        O262   1.275       .  A
C257        C941   1.473       .  S
C258        O285   1.272       .  A
C258        C952   1.490       .  S
Mg259       O266   2.143   1_455  S
Mg259       O267   2.143   1_455  S
Mg259       O260   2.303   1_455  S
Mg259       O261   2.302       .  S
Mg259       O288   2.269       .  S
O261        C265   1.271       .  A
O262       Mg269   2.314       .  S
O263        C282   1.270       .  A
O264        C284   1.276       .  A
O264       Mg280   2.314       .  S
O266       Mg280   2.146       .  S
O266        C277   1.238       .  S
O267       Mg286   2.139   1_665  S
O268       Mg280   2.302       .  S
Mg269       O285   2.259       .  S
O270       Mg286   2.262       .  S
H271        C276   1.081   1_565  S
O272       Mg280   2.129   1_545  S
O272        C275   1.237       .  S
H273        C275   1.081       .  S
H274        C277   1.081       .  S
O279       Mg286   2.301       .  S
C282        O287   1.278       .  A
C282        C980   1.487       .  S
O283        C284   1.272       .  A
C284       C1011   1.470       .  S
O289       Mg291   2.139   1_544  S
O289       Mg297   2.144   1_545  S
O289        C324   1.238       .  S
C290        O303   1.237       .  S
C290        O327   1.270       .  A
C290        H329   1.081       .  S
Mg291       O320   2.147   1_556  S
Mg291       O335   2.313   1_556  S
Mg291       O331   2.267       .  S
Mg291       O302   2.296       .  S
O292       Mg334   2.146   1_556  S
O292       Mg317   2.136   1_556  S
O292        C313   1.237       .  S
O293        C324   1.272       .  A
O293       Mg317   2.302       .  S
C294        O296   1.274       .  A
C294        O308   1.274       .  A
C294        C899   1.486       .  S
O295        C323   1.271       .  A
O295       Mg297   2.298       .  S
O296       Mg328   2.263       .  S
Mg297       O303   2.130   1_565  S
Mg297       O311   2.254       .  S
Mg297       O299   2.305   1_565  S
C298        O336   1.271       .  A
C298        O304   1.274       .  A
C298        C910   1.468       .  S
O299        C306   1.274       .  A
H300        C313   1.081       .  S
C301        O315   1.237       .  S
C301        O316   1.270       .  A
C301        H326   1.081       .  S
O302        C325   1.271       .  A
O303       Mg317   2.146       .  S
O304       Mg334   2.301   1_556  S
C305        O318   1.270       .  A
C305        O310   1.276       .  A
C305        C857   1.476       .  S
C306        O333   1.271       .  A
C306        C868   1.466       .  S
Mg307       O314   2.131   1_545  S
Mg307       O315   2.148   1_545  S
Mg307       O308   2.299   1_545  S
Mg307       O309   2.297       .  S
Mg307       O336   2.259       .  S
O309        C313   1.271       .  A
O310       Mg317   2.319       .  S
O311        C330   1.271       .  A
O312        C332   1.276       .  A
O312       Mg328   2.309       .  S
O314       Mg328   2.151       .  S
O314        C325   1.237       .  S
O315       Mg334   2.127   1_566  S
O316       Mg328   2.295       .  S
Mg317       O333   2.259       .  S
O318       Mg334   2.242       .  S
H319        C324   1.081       .  S
O320       Mg328   2.132   1_554  S
O320        C323   1.237       .  S
H321        C323   1.081       .  S
H322        C325   1.081       .  S
O327       Mg334   2.295       .  S
C330        O335   1.277       .  A
C330        C882   1.492       .  S
O331        C332   1.273       .  A
C332        C927   1.476       .  S
O337       Mg339   2.134   1_455  S
O337       Mg345   2.142       .  S
O337        C372   1.237   1_545  S
C338        O351   1.238   1_554  S
C338        O375   1.272       .  A
C338        H377   1.081   1_565  S
Mg339       O368   2.150       .  S
Mg339       O383   2.313   1_655  S
Mg339       O379   2.258       .  S
Mg339       O350   2.293       .  S
O340       Mg382   2.148       .  S
O340       Mg365   2.132   1_554  S
O340        C361   1.238   1_455  S
O341        C372   1.271       .  A
O341       Mg365   2.300       .  S
C342        O344   1.272       .  A
C342        O356   1.276       .  A
C342        C773   1.473       .  S
O343        C371   1.271       .  A
O343       Mg345   2.298       .  S
O344       Mg376   2.261       .  S
Mg345       O351   2.143   1_545  S
Mg345       O359   2.266       .  S
Mg345       O347   2.317   1_545  S
C346        O384   1.272       .  A
C346        O352   1.278       .  A
C346        C843   1.486       .  S
O347        C354   1.276       .  A
H348        C361   1.081   1_556  S
C349        O363   1.237   1_545  S
C349        O364   1.270       .  A
C349        H374   1.081   1_655  S
O350        C373   1.271       .  A
O351       Mg365   2.145       .  S
O352       Mg382   2.320   1_655  S
C353        O366   1.273       .  A
C353        O358   1.275       .  A
C353        C787   1.476       .  S
C354        O381   1.272       .  A
C354        C812   1.481       .  S
Mg355       O362   2.132   1_565  S
Mg355       O363   2.147       .  S
Mg355       O356   2.313   1_565  S
Mg355       O357   2.297       .  S
Mg355       O384   2.252       .  S
O357        C361   1.271       .  A
O358       Mg365   2.311   1_554  S
O359        C378   1.274       .  A
O360        C380   1.275       .  A
O360       Mg376   2.306   1_556  S
O362       Mg376   2.152       .  S
O362        C373   1.237   1_554  S
O363       Mg382   2.136   1_655  S
O364       Mg376   2.294       .  S
Mg365       O381   2.250       .  S
O366       Mg382   2.268       .  S
H367        C372   1.081   1_655  S
O368       Mg376   2.133   1_556  S
O368        C371   1.237   1_655  S
H369        C371   1.081   1_554  S
H370        C373   1.081   1_565  S
O375       Mg382   2.301       .  S
C378        O383   1.276       .  A
C378        C801   1.490       .  S
O379        C380   1.272       .  A
C380        C829   1.472       .  S
O385       Mg387   2.139       .  S
O385       Mg393   2.144       .  S
O385        C420   1.237       .  S
C386        O399   1.238       .  S
C386        O423   1.272       .  A
C386        H425   1.081       .  S
Mg387       O416   2.147       .  S
Mg387       O431   2.306       .  S
Mg387       O427   2.262       .  S
Mg387       O398   2.297       .  S
O388       Mg430   2.150       .  S
O388       Mg413   2.136       .  S
O388        C409   1.237       .  S
O389        C420   1.272       .  A
O389       Mg413   2.303       .  S
C390        O392   1.273       .  A
C390        O404   1.275       .  A
C390       C1221   1.491       .  S
O391        C419   1.271       .  A
O391       Mg393   2.298       .  S
O392       Mg424   2.262       .  S
Mg393       O399   2.141       .  S
Mg393       O407   2.262       .  S
Mg393       O395   2.312       .  S
C394        O432   1.271       .  A
C394        O400   1.276       .  A
C394       C1400   1.473       .  S
O395        C402   1.275       .  A
H396        C409   1.081       .  S
C397        O411   1.238       .  S
C397        O412   1.272       .  A
C397        H422   1.081       .  S
O398        C421   1.271       .  A
O399       Mg413   2.143       .  S
O400       Mg430   2.315       .  S
C401        O414   1.271       .  A
C401        O406   1.275       .  A
C401       C1123   1.468       .  S
C402        O429   1.271       .  A
C402       C1008   1.469       .  S
Mg403       O410   2.129       .  S
Mg403       O411   2.145       .  S
Mg403       O404   2.302       .  S
Mg403       O405   2.298       .  S
Mg403       O432   2.252       .  S
O405        C409   1.271       .  A
O406       Mg413   2.308       .  S
O407        C426   1.271       .  A
O408        C428   1.276       .  A
O408       Mg424   2.311       .  S
O410       Mg424   2.143       .  S
O410        C421   1.237       .  S
O411       Mg430   2.137       .  S
O412       Mg424   2.300       .  S
Mg413       O429   2.261       .  S
O414       Mg430   2.259       .  S
H415        C420   1.081       .  S
O416       Mg424   2.132       .  S
O416        C419   1.237       .  S
H417        C419   1.081       .  S
H418        C421   1.081       .  S
O423       Mg430   2.302       .  S
C426        O431   1.274       .  A
C426        C840   1.469       .  S
O427        C428   1.272       .  A
C428       C1067   1.477       .  S
O433       Mg435   2.135       .  S
O433       Mg441   2.143       .  S
O433        C468   1.237       .  S
C434        O447   1.238       .  S
C434        O471   1.271       .  A
C434        H473   1.081       .  S
Mg435       O464   2.144       .  S
Mg435       O479   2.308       .  S
Mg435       O475   2.261       .  S
Mg435       O446   2.301       .  S
O436       Mg478   2.152       .  S
O436       Mg461   2.126       .  S
O436        C457   1.237       .  S
O437        C468   1.270       .  A
O437       Mg461   2.296       .  S
C438        O440   1.270       .  A
C438        O452   1.275       .  A
C438       C1134   1.477       .  S
O439        C467   1.272       .  A
O439       Mg441   2.304       .  S
O440       Mg472   2.256       .  S
Mg441       O447   2.137       .  S
Mg441       O455   2.263       .  S
Mg441       O443   2.303       .  S
C442        O480   1.271       .  A
C442        O448   1.276       .  A
C442       C1375   1.475       .  S
O443        C450   1.276       .  A
H444        C457   1.081       .  S
C445        O459   1.237       .  S
C445        O460   1.271       .  A
C445        H470   1.081       .  S
O446        C469   1.271       .  A
O447       Mg461   2.156       .  S
O448       Mg478   2.319       .  S
C449        O462   1.272       .  A
C449        O454   1.275       .  A
C449       C1316   1.472       .  S
C450        O477   1.272       .  A
C450       C1095   1.480       .  S
Mg451       O458   2.131       .  S
Mg451       O459   2.143       .  S
Mg451       O452   2.311       .  S
Mg451       O453   2.292       .  S
Mg451       O480   2.243       .  S
O453        C457   1.270       .  A
O454       Mg461   2.302       .  S
O455        C474   1.272       .  A
O456        C476   1.274       .  A
O456       Mg472   2.301       .  S
O458       Mg472   2.137       .  S
O458        C469   1.237       .  S
O459       Mg478   2.135       .  S
O460       Mg472   2.300       .  S
Mg461       O477   2.258       .  S
O462       Mg478   2.260       .  S
H463        C468   1.081       .  S
O464       Mg472   2.136       .  S
O464        C467   1.237       .  S
H465        C467   1.081       .  S
H466        C469   1.081       .  S
O471       Mg478   2.296       .  S
C474        O479   1.275       .  A
C474        C826   1.472       .  S
O475        C476   1.272       .  A
C476        C913   1.475       .  S
O481       Mg483   2.144       .  S
O481       Mg489   2.144       .  S
O481        C516   1.238       .  S
C482        O495   1.237       .  S
C482        O519   1.271       .  A
C482        H521   1.081       .  S
Mg483       O512   2.147       .  S
Mg483       O527   2.315       .  S
Mg483       O523   2.266       .  S
Mg483       O494   2.300       .  S
O484       Mg526   2.149       .  S
O484       Mg509   2.132       .  S
O484        C505   1.237       .  S
O485        C516   1.272       .  A
O485       Mg509   2.303       .  S
C486        O488   1.274       .  A
C486        O500   1.274       .  A
C486       C1302   1.494       .  S
O487        C515   1.271       .  A
O487       Mg489   2.300       .  S
O488       Mg520   2.270       .  S
Mg489       O495   2.130       .  S
Mg489       O503   2.249       .  S
Mg489       O491   2.314       .  S
C490        O528   1.271       .  A
C490        O496   1.275       .  A
C490       C1417   1.472       .  S
O491        C498   1.277       .  A
H492        C505   1.081       .  S
C493        O507   1.237       .  S
C493        O508   1.271       .  A
C493        H518   1.081       .  S
O494        C517   1.271       .  A
O495       Mg509   2.141       .  S
O496       Mg526   2.306       .  S
C497        O510   1.271       .  A
C497        O502   1.277       .  A
C497       C1190   1.487       .  S
C498        O525   1.272       .  A
C498        C924   1.488       .  S
Mg499       O506   2.131       .  S
Mg499       O507   2.146       .  S
Mg499       O500   2.300       .  S
Mg499       O501   2.295       .  S
Mg499       O528   2.251       .  S
O501        C505   1.270       .  A
O502       Mg509   2.312       .  S
O503        C522   1.272       .  A
O504        C524   1.275       .  A
O504       Mg520   2.309       .  S
O506       Mg520   2.143       .  S
O506        C517   1.237       .  S
O507       Mg526   2.136       .  S
O508       Mg520   2.299       .  S
Mg509       O525   2.264       .  S
O510       Mg526   2.253       .  S
H511        C516   1.081       .  S
O512       Mg520   2.136       .  S
O512        C515   1.237       .  S
H513        C515   1.081       .  S
H514        C517   1.081       .  S
O519       Mg526   2.297       .  S
C522        O527   1.275       .  A
C522        C815   1.489       .  S
O523        C524   1.272       .  A
C524        C997   1.469       .  S
O529       Mg531   2.138       .  S
O529       Mg537   2.143       .  S
O529        C564   1.237       .  S
C530        O543   1.238       .  S
C530        O567   1.272       .  A
C530        H569   1.081       .  S
Mg531       O560   2.150       .  S
Mg531       O575   2.309       .  S
Mg531       O571   2.264       .  S
Mg531       O542   2.296       .  S
O532       Mg574   2.142       .  S
O532       Mg557   2.137       .  S
O532        C553   1.238       .  S
O533        C564   1.271       .  A
O533       Mg557   2.301       .  S
C534        O536   1.272       .  A
C534        O548   1.274       .  A
C534       C1165   1.471       .  S
O535        C563   1.272       .  A
O535       Mg537   2.303       .  S
O536       Mg568   2.265       .  S
Mg537       O543   2.143       .  S
Mg537       O551   2.271       .  S
Mg537       O539   2.317       .  S
C538        O576   1.272       .  A
C538        O544   1.276       .  A
C538       C1389   1.484       .  S
O539        C546   1.276       .  A
H540        C553   1.081       .  S
C541        O555   1.237       .  S
C541        O556   1.271       .  A
C541        H566   1.081       .  S
O542        C565   1.271       .  A
O543       Mg557   2.144       .  S
O544       Mg574   2.321       .  S
C545        O558   1.270       .  A
C545        O550   1.278       .  A
C545       C1260   1.488       .  S
C546        O573   1.274       .  A
C546       C1050   1.495       .  S
Mg547       O554   2.134       .  S
Mg547       O555   2.139       .  S
Mg547       O548   2.300       .  S
Mg547       O549   2.297       .  S
Mg547       O576   2.257       .  S
O549        C553   1.271       .  A
O550       Mg557   2.332       .  S
O551        C570   1.273       .  A
O552        C572   1.274       .  A
O552       Mg568   2.303       .  S
O554       Mg568   2.144       .  S
O554        C565   1.237       .  S
O555       Mg574   2.126       .  S
O556       Mg568   2.299       .  S
Mg557       O573   2.256       .  S
O558       Mg574   2.241       .  S
H559        C564   1.081       .  S
O560       Mg568   2.138       .  S
O560        C563   1.238       .  S
H561        C563   1.081       .  S
H562        C565   1.081       .  S
O567       Mg574   2.302       .  S
C570        O575   1.276       .  A
C570        C798   1.475       .  S
O571        C572   1.272       .  A
C572        C938   1.473       .  S
O577       Mg579   2.139       .  S
O577       Mg585   2.142       .  S
O577        C612   1.238       .  S
C578        O591   1.237       .  S
C578        O615   1.271       .  A
C578        H617   1.081       .  S
Mg579       O608   2.147       .  S
Mg579       O623   2.310       .  S
Mg579       O619   2.264       .  S
Mg579       O590   2.299       .  S
O580       Mg622   2.147       .  S
O580       Mg605   2.140       .  S
O580        C601   1.238       .  S
O581        C612   1.272       .  A
O581       Mg605   2.305       .  S
C582        O584   1.271       .  A
C582        O596   1.275       .  A
C582       C1361   1.473       .  S
O583        C611   1.272       .  A
O583       Mg585   2.302       .  S
O584       Mg616   2.265       .  S
Mg585       O591   2.131       .  S
Mg585       O599   2.249       .  S
Mg585       O587   2.320       .  S
C586        O624   1.270       .  A
C586        O592   1.277       .  A
C586       C1330   1.490       .  S
O587        C594   1.276       .  A
H588        C601   1.081       .  S
C589        O603   1.238       .  S
C589        O604   1.272       .  A
C589        H614   1.081       .  S
O590        C613   1.271       .  A
O591       Mg605   2.134       .  S
O592       Mg622   2.311       .  S
C593        O606   1.272       .  A
C593        O598   1.275       .  A
C593       C1022   1.470       .  S
C594        O621   1.272       .  A
C594        C784   1.476       .  S
Mg595       O602   2.130       .  S
Mg595       O603   2.141       .  S
Mg595       O596   2.318       .  S
Mg595       O597   2.302       .  S
Mg595       O624   2.248       .  S
O597        C601   1.272       .  A
O598       Mg605   2.309       .  S
O599        C618   1.270       .  A
O600        C620   1.275       .  A
O600       Mg616   2.308       .  S
O602       Mg616   2.135       .  S
O602        C613   1.237       .  S
O603       Mg622   2.139       .  S
O604       Mg616   2.305       .  S
Mg605       O621   2.268       .  S
O606       Mg622   2.266       .  S
H607        C612   1.081       .  S
O608       Mg616   2.138       .  S
O608        C611   1.238       .  S
H609        C611   1.081       .  S
H610        C613   1.081       .  S
O615       Mg622   2.301       .  S
C618        O623   1.276       .  A
C618        C885   1.487       .  S
O619        C620   1.273       .  A
C620       C1179   1.487       .  S
O625       Mg627   2.132       .  S
O625       Mg633   2.148       .  S
O625        C660   1.238       .  S
C626        O639   1.237       .  S
C626        O663   1.271       .  A
C626        H665   1.081       .  S
Mg627       O656   2.145       .  S
Mg627       O671   2.305       .  S
Mg627       O667   2.256       .  S
Mg627       O638   2.297       .  S
O628       Mg670   2.138       .  S
O628       Mg653   2.131       .  S
O628        C649   1.237       .  S
O629        C660   1.271       .  A
O629       Mg653   2.298       .  S
C630        O632   1.273       .  A
C630        O644   1.275       .  A
C630       C1347   1.488       .  S
O631        C659   1.271       .  A
O631       Mg633   2.295       .  S
O632       Mg664   2.250       .  S
Mg633       O639   2.138       .  S
Mg633       O647   2.266       .  S
Mg633       O635   2.315       .  S
C634        O672   1.272       .  A
C634        O640   1.274       .  A
C634        C983   1.481       .  S
O635        C642   1.276       .  A
H636        C649   1.081       .  S
C637        O651   1.237       .  S
C637        O652   1.271       .  A
C637        H662   1.081       .  S
O638        C661   1.271       .  A
O639       Mg653   2.144       .  S
O640       Mg670   2.309       .  S
C641        O654   1.271       .  A
C641        O646   1.277       .  A
C641        C770   1.484       .  S
C642        O669   1.273       .  A
C642        C854   1.489       .  S
Mg643       O650   2.134       .  S
Mg643       O651   2.139       .  S
Mg643       O644   2.312       .  S
Mg643       O645   2.300       .  S
Mg643       O672   2.254       .  S
O645        C649   1.271       .  A
O646       Mg653   2.323       .  S
O647        C666   1.273       .  A
O648        C668   1.276       .  A
O648       Mg664   2.318       .  S
O650       Mg664   2.145       .  S
O650        C661   1.237       .  S
O651       Mg670   2.133       .  S
O652       Mg664   2.299       .  S
Mg653       O669   2.246       .  S
O654       Mg670   2.250       .  S
H655        C660   1.081       .  S
O656       Mg664   2.131       .  S
O656        C659   1.237       .  S
H657        C659   1.081       .  S
H658        C661   1.081       .  S
O663       Mg670   2.299       .  S
C666        O671   1.274       .  A
C666       C1235   1.471       .  S
O667        C668   1.273       .  A
C668       C1431   1.487       .  S
O673       Mg675   2.136       .  S
O673       Mg681   2.150       .  S
O673        C708   1.238       .  S
C674        O687   1.237       .  S
C674        O711   1.270       .  A
C674        H713   1.081       .  S
Mg675       O704   2.151       .  S
Mg675       O719   2.303       .  S
Mg675       O715   2.257       .  S
Mg675       O686   2.293       .  S
O676       Mg718   2.149       .  S
O676       Mg701   2.136       .  S
O676        C697   1.237       .  S
O677        C708   1.272       .  A
O677       Mg701   2.301       .  S
C678        O680   1.273       .  A
C678        O692   1.275       .  A
C678       C1277   1.493       .  S
O679        C707   1.270       .  A
O679       Mg681   2.294       .  S
O680       Mg712   2.262       .  S
Mg681       O687   2.132       .  S
Mg681       O695   2.255       .  S
Mg681       O683   2.306       .  S
C682        O720   1.272       .  A
C682        O688   1.275       .  A
C682        C955   1.476       .  S
O683        C690   1.275       .  A
H684        C697   1.081       .  S
C685        O699   1.237       .  S
C685        O700   1.270       .  A
C685        H710   1.081       .  S
O686        C709   1.270       .  A
O687       Mg701   2.141       .  S
O688       Mg718   2.299       .  S
C689        O702   1.271       .  A
C689        O694   1.274       .  A
C689       C1106   1.467       .  S
C690        O717   1.271       .  A
C690        C871   1.473       .  S
Mg691       O698   2.127       .  S
Mg691       O699   2.150       .  S
Mg691       O692   2.302       .  S
Mg691       O693   2.297       .  S
Mg691       O720   2.255       .  S
O693        C697   1.271       .  A
O694       Mg701   2.305       .  S
O695        C714   1.271       .  A
O696        C716   1.276       .  A
O696       Mg712   2.305       .  S
O698       Mg712   2.148       .  S
O698        C709   1.237       .  S
O699       Mg718   2.131       .  S
O700       Mg712   2.295       .  S
Mg701       O717   2.258       .  S
O702       Mg718   2.258       .  S
H703        C708   1.081       .  S
O704       Mg712   2.132       .  S
O704        C707   1.237       .  S
H705        C707   1.081       .  S
H706        C709   1.081       .  S
O711       Mg718   2.299       .  S
C714        O719   1.275       .  A
C714       C1207   1.472       .  S
O715        C716   1.273       .  A
C716       C1036   1.477       .  S
O721       Mg723   2.128       .  S
O721       Mg729   2.140       .  S
O721        C756   1.237       .  S
C722        O735   1.237       .  S
C722        O759   1.270       .  A
C722        H761   1.081       .  S
Mg723       O752   2.140       .  S
Mg723       O767   2.309       .  S
Mg723       O763   2.240       .  S
Mg723       O734   2.300       .  S
O724       Mg766   2.153       .  S
O724       Mg749   2.130       .  S
O724        C745   1.237       .  S
O725        C756   1.271       .  A
O725       Mg749   2.298       .  S
C726        O728   1.274       .  A
C726        O740   1.275       .  A
C726        C896   1.494       .  S
O727        C755   1.272       .  A
O727       Mg729   2.302       .  S
O728       Mg760   2.266       .  S
Mg729       O735   2.125       .  S
Mg729       O743   2.252       .  S
Mg729       O731   2.296       .  S
C730        O768   1.273       .  A
C730        O736   1.275       .  A
C730       C1249   1.472       .  S
O731        C738   1.273       .  A
H732        C745   1.081       .  S
C733        O747   1.238       .  S
C733        O748   1.272       .  A
C733        H758   1.081       .  S
O734        C757   1.271       .  A
O735       Mg749   2.146       .  S
O736       Mg766   2.308       .  S
C737        O750   1.274       .  A
C737        O742   1.274       .  A
C737       C1081   1.488       .  S
C738        O765   1.273       .  A
C738       C1291   1.487       .  S
Mg739       O746   2.136       .  S
Mg739       O747   2.148       .  S
Mg739       O740   2.304       .  S
Mg739       O741   2.293       .  S
Mg739       O768   2.266       .  S
O741        C745   1.270       .  A
O742       Mg749   2.296       .  S
O743        C762   1.269       .  A
O744        C764   1.279       .  A
O744       Mg760   2.332       .  S
O746       Mg760   2.144       .  S
O746        C757   1.237       .  S
O747       Mg766   2.136       .  S
O748       Mg760   2.301       .  S
Mg749       O765   2.263       .  S
O750       Mg766   2.266       .  S
H751        C756   1.081       .  S
O752       Mg760   2.140       .  S
O752        C755   1.237       .  S
H753        C755   1.081       .  S
H754        C757   1.081       .  S
O759       Mg766   2.294       .  S
C762        O767   1.276       .  A
C762        C966   1.491       .  S
O763        C764   1.269       .  A
C764       C1151   1.494       .  S
C769        H776   1.084       .  S
C769        C770   1.406       .  A
C769        C774   1.406       .  A
C770        C771   1.415       .  A
C771        C772   1.402       .  A
C771        N778   1.439       .  S
C772        H777   1.084       .  S
C772        C773   1.400       .  A
C773        C774   1.416       .  A
C774        N775   1.438       .  S
N775        H779   1.046       .  S
N775        H780   1.043       .  S
N778        H781   1.046       .  S
N778        H782   1.046       .  S
C783        H790   1.084       .  S
C783        C784   1.402       .  A
C783        C788   1.402       .  A
C784        C785   1.410       .  A
C785        C786   1.407       .  A
C785        N792   1.437       .  S
C786        H791   1.084       .  S
C786        C787   1.403       .  A
C787        C788   1.418       .  A
C788        N789   1.439       .  S
N789        H793   1.046       .  S
N789        H794   1.043       .  S
N792        H795   1.046       .  S
N792        H796   1.046       .  S
C797        H804   1.084       .  S
C797        C798   1.402       .  A
C797        C802   1.408       .  A
C798        C799   1.417       .  A
C799        C800   1.400       .  A
C799        N806   1.439       .  S
C800        H805   1.084       .  S
C800        C801   1.406       .  A
C801        C802   1.417       .  A
C802        N803   1.438       .  S
N803        H807   1.046       .  S
N803        H808   1.046       .  S
N806        H809   1.041       .  S
N806        H810   1.046       .  S
C811        H818   1.084       .  S
C811        C812   1.405       .  A
C811        C816   1.410       .  A
C812        C813   1.411       .  A
C813        C814   1.401       .  A
C813        N820   1.439       .  S
C814        H819   1.083       .  S
C814        C815   1.406       .  A
C815        C816   1.417       .  A
C816        N817   1.438       .  S
N817        H821   1.046       .  S
N817        H822   1.045       .  S
N820        H823   1.046       .  S
N820        H824   1.046       .  S
C825        H832   1.084       .  S
C825        C826   1.402       .  A
C825        C830   1.404       .  A
C826        C827   1.417       .  A
C827        C828   1.402       .  A
C827        N834   1.438       .  S
C828        H833   1.084       .  S
C828        C829   1.401       .  A
C829        C830   1.409       .  A
C830        N831   1.438       .  S
N831        H835   1.046       .  S
N831        H836   1.046       .  S
N834        H837   1.043       .  S
N834        H838   1.046       .  S
C839        H846   1.084       .  S
C839        C840   1.398       .  A
C839        C844   1.403       .  A
C840        C841   1.414       .  A
C841        C842   1.404       .  A
C841        N848   1.438       .  S
C842        H847   1.084       .  S
C842        C843   1.407       .  A
C843        C844   1.416       .  A
C844        N845   1.439       .  S
N845        H849   1.046       .  S
N845        H850   1.046       .  S
N848        H851   1.043       .  S
N848        H852   1.046       .  S
C853        H860   1.084       .  S
C853        C854   1.405       .  A
C853        C858   1.392       .  A
C854        C855   1.419       .  A
C855        C856   1.411       .  A
C855        N862   1.438       .  S
C856        H861   1.084       .  S
C856        C857   1.403       .  A
C857        C858   1.413       .  A
C858        N859   1.434       .  S
N859        H863   1.044       .  S
N859        H864   1.046       .  S
N862        H865   1.046       .  S
N862        H866   1.046       .  S
C867        H874   1.084       .  S
C867        C868   1.399       .  A
C867        C872   1.401       .  A
C868        C869   1.407       .  A
C869        C870   1.405       .  A
C869        N876   1.438       .  S
C870        H875   1.084       .  S
C870        C871   1.404       .  A
C871        C872   1.418       .  A
C872        N873   1.438       .  S
N873        H877   1.046       .  S
N873        H878   1.042       .  S
N876        H879   1.045       .  S
N876        H880   1.046       .  S
C881        H888   1.083       .  S
C881        C882   1.406       .  A
C881        C886   1.405       .  A
C882        C883   1.419       .  A
C883        C884   1.405       .  A
C883        N890   1.438       .  S
C884        H889   1.084       .  S
C884        C885   1.404       .  A
C885        C886   1.416       .  A
C886        N887   1.438       .  S
N887        H891   1.046       .  S
N887        H892   1.045       .  S
N890        H893   1.046       .  S
N890        H894   1.046       .  S
C895        H902   1.083       .  S
C895        C896   1.408       .  A
C895        C900   1.405       .  A
C896        C897   1.419       .  A
C897        C898   1.405       .  A
C897        N904   1.438       .  S
C898        H903   1.084       .  S
C898        C899   1.404       .  A
C899        C900   1.414       .  A
C900        N901   1.438       .  S
N901        H905   1.046       .  S
N901        H906   1.045       .  S
N904        H907   1.046       .  S
N904        H908   1.046       .  S
C909        H916   1.084       .  S
C909        C910   1.400       .  A
C909        C914   1.400       .  A
C910        C911   1.414       .  A
C911        C912   1.401       .  A
C911        N918   1.439       .  S
C912        H917   1.084       .  S
C912        C913   1.404       .  A
C913        C914   1.419       .  A
C914        N915   1.438       .  S
N915        H919   1.045       .  S
N915        H920   1.042       .  S
N918        H921   1.043       .  S
N918        H922   1.046       .  S
C923        H930   1.084       .  S
C923        C924   1.405       .  A
C923        C928   1.402       .  A
C924        C925   1.416       .  A
C925        C926   1.407       .  A
C925        N932   1.438       .  S
C926        H931   1.084       .  S
C926        C927   1.402       .  A
C927        C928   1.417       .  A
C928        N929   1.440       .  S
N929        H933   1.046       .  S
N929        H934   1.042       .  S
N932        H935   1.046       .  S
N932        H936   1.046       .  S
C937        H944   1.084       .  S
C937        C938   1.403       .  A
C937        C942   1.406       .  A
C938        C939   1.417       .  A
C939        C940   1.402       .  A
C939        N946   1.438       .  S
C940        H945   1.084       .  S
C940        C941   1.401       .  A
C941        C942   1.410       .  A
C942        N943   1.438       .  S
N943        H947   1.046       .  S
N943        H948   1.046       .  S
N946        H949   1.042       .  S
N946        H950   1.046       .  S
C951        H958   1.083       .  S
C951        C952   1.408       .  A
C951        C956   1.404       .  A
C952        C953   1.418       .  A
C953        C954   1.405       .  A
C953        N960   1.439       .  S
C954        H959   1.084       .  S
C954        C955   1.401       .  A
C955        C956   1.409       .  A
C956        N957   1.438       .  S
N957        H961   1.046       .  S
N957        H962   1.046       .  S
N960        H963   1.046       .  S
N960        H964   1.046       .  S
C965        H972   1.084       .  S
C965        C966   1.407       .  A
C965        C970   1.400       .  A
C966        C967   1.419       .  A
C967        C968   1.406       .  A
C967        N974   1.438       .  S
C968        H973   1.084       .  S
C968        C969   1.401       .  A
C969        C970   1.416       .  A
C970        N971   1.438       .  S
N971        H975   1.046       .  S
N971        H976   1.041       .  S
N974        H977   1.045       .  S
N974        H978   1.046       .  S
C979        H986   1.083       .  S
C979        C980   1.406       .  A
C979        C984   1.410       .  A
C980        C981   1.417       .  A
C981        C982   1.401       .  A
C981        N988   1.439       .  S
C982        H987   1.084       .  S
C982        C983   1.401       .  A
C983        C984   1.415       .  A
C984        N985   1.438       .  S
N985        H989   1.046       .  S
N985        H990   1.045       .  S
N988        H991   1.046       .  S
N988        H992   1.046       .  S
C993       H1000   1.084       .  S
C993        C994   1.402       .  A
C993        C998   1.406       .  A
C994        C995   1.410       .  A
C995        C996   1.406       .  A
C995       N1002   1.438       .  S
C996       H1001   1.084       .  S
C996        C997   1.401       .  A
C997        C998   1.408       .  A
C998        N999   1.437       .  S
N999       H1003   1.046       .  S
N999       H1004   1.046       .  S
N1002      H1005   1.046       .  S
N1002      H1006   1.046       .  S
C1007      H1014   1.084       .  S
C1007      C1008   1.400       .  A
C1007      C1012   1.402       .  A
C1008      C1009   1.408       .  A
C1009      C1010   1.406       .  A
C1009      N1016   1.438       .  S
C1010      H1015   1.084       .  S
C1010      C1011   1.403       .  A
C1011      C1012   1.416       .  A
C1012      N1013   1.438       .  S
N1013      H1017   1.046       .  S
N1013      H1018   1.043       .  S
N1016      H1019   1.046       .  S
N1016      H1020   1.046       .  S
C1021      H1028   1.084       .  S
C1021      C1022   1.401       .  A
C1021      C1026   1.402       .  A
C1022      C1023   1.416       .  A
C1023      C1024   1.401       .  A
C1023      N1030   1.439       .  S
C1024      H1029   1.084       .  S
C1024      C1025   1.402       .  A
C1025      C1026   1.416       .  A
C1026      N1027   1.439       .  S
N1027      H1031   1.046       .  S
N1027      H1032   1.043       .  S
N1030      H1033   1.043       .  S
N1030      H1034   1.046       .  S
C1035      H1042   1.084       .  S
C1035      C1036   1.402       .  A
C1035      C1040   1.405       .  A
C1036      C1037   1.416       .  A
C1037      C1038   1.400       .  A
C1037      N1044   1.438       .  S
C1038      H1043   1.084       .  S
C1038      C1039   1.407       .  A
C1039      C1040   1.418       .  A
C1040      N1041   1.438       .  S
N1041      H1045   1.046       .  S
N1041      H1046   1.045       .  S
N1044      H1047   1.043       .  S
N1044      H1048   1.045       .  S
C1049      H1056   1.084       .  S
C1049      C1050   1.407       .  A
C1049      C1054   1.396       .  A
C1050      C1051   1.420       .  A
C1051      C1052   1.411       .  A
C1051      N1058   1.438       .  S
C1052      H1057   1.084       .  S
C1052      C1053   1.402       .  A
C1053      C1054   1.414       .  A
C1054      N1055   1.439       .  S
N1055      H1059   1.046       .  S
N1055      H1060   1.042       .  S
N1058      H1061   1.046       .  S
N1058      H1062   1.046       .  S
C1063      H1070   1.084       .  S
C1063      C1064   1.401       .  A
C1063      C1068   1.401       .  A
C1064      C1065   1.414       .  A
C1065      C1066   1.401       .  A
C1065      N1072   1.439       .  S
C1066      H1071   1.084       .  S
C1066      C1067   1.404       .  A
C1067      C1068   1.419       .  A
C1068      N1069   1.438       .  S
N1069      H1073   1.045       .  S
N1069      H1074   1.042       .  S
N1072      H1075   1.043       .  S
N1072      H1076   1.046       .  S
C1077      H1084   1.083       .  S
C1077      C1078   1.407       .  A
C1077      C1082   1.405       .  A
C1078      C1079   1.417       .  A
C1079      C1080   1.405       .  A
C1079      N1086   1.438       .  S
C1080      H1085   1.083       .  S
C1080      C1081   1.405       .  A
C1081      C1082   1.415       .  A
C1082      N1083   1.439       .  S
N1083      H1087   1.046       .  S
N1083      H1088   1.045       .  S
N1086      H1089   1.046       .  S
N1086      H1090   1.046       .  S
C1091      H1098   1.083       .  S
C1091      C1092   1.408       .  A
C1091      C1096   1.405       .  A
C1092      C1093   1.420       .  A
C1093      C1094   1.405       .  A
C1093      N1100   1.438       .  S
C1094      H1099   1.084       .  S
C1094      C1095   1.401       .  A
C1095      C1096   1.411       .  A
C1096      N1097   1.438       .  S
N1097      H1101   1.046       .  S
N1097      H1102   1.046       .  S
N1100      H1103   1.046       .  S
N1100      H1104   1.046       .  S
C1105      H1112   1.084       .  S
C1105      C1106   1.402       .  A
C1105      C1110   1.407       .  A
C1106      C1107   1.415       .  A
C1107      C1108   1.398       .  A
C1107      N1114   1.439       .  S
C1108      H1113   1.084       .  S
C1108      C1109   1.403       .  A
C1109      C1110   1.412       .  A
C1110      N1111   1.438       .  S
N1111      H1115   1.046       .  S
N1111      H1116   1.046       .  S
N1114      H1117   1.042       .  S
N1114      H1118   1.046       .  S
C1119      H1126   1.084       .  S
C1119      C1120   1.407       .  A
C1119      C1124   1.404       .  A
C1120      C1121   1.418       .  A
C1121      C1122   1.402       .  A
C1121      N1128   1.439       .  S
C1122      H1127   1.084       .  S
C1122      C1123   1.397       .  A
C1123      C1124   1.414       .  A
C1124      N1125   1.438       .  S
N1125      H1129   1.046       .  S
N1125      H1130   1.043       .  S
N1128      H1131   1.045       .  S
N1128      H1132   1.046       .  S
C1133      H1140   1.084       .  S
C1133      C1134   1.404       .  A
C1133      C1138   1.406       .  A
C1134      C1135   1.416       .  A
C1135      C1136   1.399       .  A
C1135      N1142   1.433       .  S
C1136      H1141   1.084       .  S
C1136      C1137   1.399       .  A
C1137      C1138   1.408       .  A
C1138      N1139   1.438       .  S
N1139      H1143   1.046       .  S
N1139      H1144   1.046       .  S
N1142      H1145   1.046       .  S
N1142      H1146   1.044       .  S
C1147      H1154   1.084       .  S
C1147      C1148   1.397       .  A
C1147      C1152   1.403       .  A
C1148      C1149   1.416       .  A
C1149      C1150   1.404       .  A
C1149      N1156   1.439       .  S
C1150      H1155   1.084       .  S
C1150      C1151   1.409       .  A
C1151      C1152   1.422       .  A
C1152      N1153   1.439       .  S
N1153      H1157   1.046       .  S
N1153      H1158   1.046       .  S
N1156      H1159   1.042       .  S
N1156      H1160   1.046       .  S
C1161      H1168   1.084       .  S
C1161      C1162   1.406       .  A
C1161      C1166   1.404       .  A
C1162      C1163   1.418       .  A
C1163      C1164   1.406       .  A
C1163      N1170   1.438       .  S
C1164      H1169   1.084       .  S
C1164      C1165   1.400       .  A
C1165      C1166   1.408       .  A
C1166      N1167   1.438       .  S
N1167      H1171   1.046       .  S
N1167      H1172   1.046       .  S
N1170      H1173   1.046       .  S
N1170      H1174   1.046       .  S
C1175      H1182   1.084       .  S
C1175      C1176   1.400       .  A
C1175      C1180   1.407       .  A
C1176      C1177   1.413       .  A
C1177      C1178   1.400       .  A
C1177      N1184   1.439       .  S
C1178      H1183   1.084       .  S
C1178      C1179   1.407       .  A
C1179      C1180   1.417       .  A
C1180      N1181   1.438       .  S
N1181      H1185   1.046       .  S
N1181      H1186   1.045       .  S
N1184      H1187   1.043       .  S
N1184      H1188   1.046       .  S
C1189      H1196   1.084       .  S
C1189      C1190   1.406       .  A
C1189      C1194   1.400       .  A
C1190      C1191   1.418       .  A
C1191      C1192   1.405       .  A
C1191      N1198   1.438       .  S
C1192      H1197   1.084       .  S
C1192      C1193   1.401       .  A
C1193      C1194   1.416       .  A
C1194      N1195   1.439       .  S
N1195      H1199   1.046       .  S
N1195      H1200   1.042       .  S
N1198      H1201   1.045       .  S
N1198      H1202   1.046       .  S
C1203      H1210   1.084       .  S
C1203      C1204   1.406       .  A
C1203      C1208   1.400       .  A
C1204      C1205   1.417       .  A
C1205      C1206   1.405       .  A
C1205      N1212   1.438       .  S
C1206      H1211   1.084       .  S
C1206      C1207   1.401       .  A
C1207      C1208   1.415       .  A
C1208      N1209   1.438       .  S
N1209      H1213   1.046       .  S
N1209      H1214   1.042       .  S
N1212      H1215   1.045       .  S
N1212      H1216   1.046       .  S
C1217      H1224   1.084       .  S
C1217      C1218   1.402       .  A
C1217      C1222   1.405       .  A
C1218      C1219   1.409       .  A
C1219      C1220   1.405       .  A
C1219      N1226   1.438       .  S
C1220      H1225   1.083       .  S
C1220      C1221   1.408       .  A
C1221      C1222   1.418       .  A
C1222      N1223   1.438       .  S
N1223      H1227   1.046       .  S
N1223      H1228   1.046       .  S
N1226      H1229   1.046       .  S
N1226      H1230   1.046       .  S
C1231      H1238   1.084       .  S
C1231      C1232   1.403       .  A
C1231      C1236   1.402       .  A
C1232      C1233   1.412       .  A
C1233      C1234   1.406       .  A
C1233      N1240   1.438       .  S
C1234      H1239   1.084       .  S
C1234      C1235   1.401       .  A
C1235      C1236   1.416       .  A
C1236      N1237   1.439       .  S
N1237      H1241   1.046       .  S
N1237      H1242   1.043       .  S
N1240      H1243   1.046       .  S
N1240      H1244   1.046       .  S
C1245      H1252   1.084       .  S
C1245      C1246   1.404       .  A
C1245      C1250   1.402       .  A
C1246      C1247   1.412       .  A
C1247      C1248   1.407       .  A
C1247      N1254   1.438       .  S
C1248      H1253   1.084       .  S
C1248      C1249   1.402       .  A
C1249      C1250   1.416       .  A
C1250      N1251   1.440       .  S
N1251      H1255   1.046       .  S
N1251      H1256   1.043       .  S
N1254      H1257   1.046       .  S
N1254      H1258   1.046       .  S
C1259      H1266   1.083       .  S
C1259      C1260   1.408       .  A
C1259      C1264   1.411       .  A
C1260      C1261   1.416       .  A
C1261      C1262   1.401       .  A
C1261      N1268   1.439       .  S
C1262      H1267   1.084       .  S
C1262      C1263   1.403       .  A
C1263      C1264   1.413       .  A
C1264      N1265   1.438       .  S
N1265      H1269   1.046       .  S
N1265      H1270   1.046       .  S
N1268      H1271   1.045       .  S
N1268      H1272   1.046       .  S
C1273      H1280   1.084       .  S
C1273      C1274   1.403       .  A
C1273      C1278   1.406       .  A
C1274      C1275   1.412       .  A
C1275      C1276   1.405       .  A
C1275      N1282   1.438       .  S
C1276      H1281   1.083       .  S
C1276      C1277   1.409       .  A
C1277      C1278   1.419       .  A
C1278      N1279   1.438       .  S
N1279      H1283   1.046       .  S
N1279      H1284   1.046       .  S
N1282      H1285   1.046       .  S
N1282      H1286   1.046       .  S
C1287      H1294   1.084       .  S
C1287      C1288   1.402       .  A
C1287      C1292   1.405       .  A
C1288      C1289   1.416       .  A
C1289      C1290   1.400       .  A
C1289      N1296   1.438       .  S
C1290      H1295   1.084       .  S
C1290      C1291   1.406       .  A
C1291      C1292   1.417       .  A
C1292      N1293   1.439       .  S
N1293      H1297   1.046       .  S
N1293      H1298   1.045       .  S
N1296      H1299   1.042       .  S
N1296      H1300   1.045       .  S
C1301      H1308   1.084       .  S
C1301      C1302   1.408       .  A
C1301      C1306   1.399       .  A
C1302      C1303   1.420       .  A
C1303      C1304   1.406       .  A
C1303      N1310   1.438       .  S
C1304      H1309   1.084       .  S
C1304      C1305   1.402       .  A
C1305      C1306   1.414       .  A
C1306      N1307   1.433       .  S
N1307      H1311   1.044       .  S
N1307      H1312   1.046       .  S
N1310      H1313   1.045       .  S
N1310      H1314   1.046       .  S
C1315      H1322   1.084       .  S
C1315      C1316   1.401       .  A
C1315      C1320   1.405       .  A
C1316      C1317   1.408       .  A
C1317      C1318   1.405       .  A
C1317      N1324   1.438       .  S
C1318      H1323   1.083       .  S
C1318      C1319   1.407       .  A
C1319      C1320   1.416       .  A
C1320      N1321   1.438       .  S
N1321      H1325   1.046       .  S
N1321      H1326   1.046       .  S
N1324      H1327   1.046       .  S
N1324      H1328   1.046       .  S
C1329      H1336   1.083       .  S
C1329      C1330   1.406       .  A
C1329      C1334   1.405       .  A
C1330      C1331   1.418       .  A
C1331      C1332   1.405       .  A
C1331      N1338   1.438       .  S
C1332      H1337   1.083       .  S
C1332      C1333   1.404       .  A
C1333      C1334   1.416       .  A
C1334      N1335   1.438       .  S
N1335      H1339   1.046       .  S
N1335      H1340   1.046       .  S
N1338      H1341   1.045       .  S
N1338      H1342   1.046       .  S
C1343      H1350   1.084       .  S
C1343      C1344   1.404       .  A
C1343      C1348   1.411       .  A
C1344      C1345   1.415       .  A
C1345      C1346   1.393       .  A
C1345      N1352   1.434       .  S
C1346      H1351   1.084       .  S
C1346      C1347   1.404       .  A
C1347      C1348   1.418       .  A
C1348      N1349   1.438       .  S
N1349      H1353   1.046       .  S
N1349      H1354   1.046       .  S
N1352      H1355   1.046       .  S
N1352      H1356   1.044       .  S
C1357      H1364   1.084       .  S
C1357      C1358   1.404       .  A
C1357      C1362   1.406       .  A
C1358      C1359   1.419       .  A
C1359      C1360   1.403       .  A
C1359      N1366   1.438       .  S
C1360      H1365   1.084       .  S
C1360      C1361   1.401       .  A
C1361      C1362   1.409       .  A
C1362      N1363   1.438       .  S
N1363      H1367   1.046       .  S
N1363      H1368   1.046       .  S
N1366      H1369   1.042       .  S
N1366      H1370   1.046       .  S
C1371      H1378   1.083       .  S
C1371      C1372   1.406       .  A
C1371      C1376   1.399       .  A
C1372      C1373   1.421       .  A
C1373      C1374   1.410       .  A
C1373      N1380   1.438       .  S
C1374      H1379   1.084       .  S
C1374      C1375   1.401       .  A
C1375      C1376   1.409       .  A
C1376      N1377   1.439       .  S
N1377      H1381   1.046       .  S
N1377      H1382   1.046       .  S
N1380      H1383   1.046       .  S
N1380      H1384   1.046       .  S
C1385      H1392   1.084       .  S
C1385      C1386   1.401       .  A
C1385      C1390   1.403       .  A
C1386      C1387   1.418       .  A
C1387      C1388   1.407       .  A
C1387      N1394   1.438       .  S
C1388      H1393   1.084       .  S
C1388      C1389   1.405       .  A
C1389      C1390   1.413       .  A
C1390      N1391   1.439       .  S
N1391      H1395   1.046       .  S
N1391      H1396   1.046       .  S
N1394      H1397   1.042       .  S
N1394      H1398   1.046       .  S
C1399      H1406   1.084       .  S
C1399      C1400   1.402       .  A
C1399      C1404   1.411       .  A
C1400      C1401   1.413       .  A
C1401      C1402   1.395       .  A
C1401      N1408   1.439       .  S
C1402      H1407   1.083       .  S
C1402      C1403   1.407       .  A
C1403      C1404   1.420       .  A
C1404      N1405   1.438       .  S
N1405      H1409   1.046       .  S
N1405      H1410   1.046       .  S
N1408      H1411   1.042       .  S
N1408      H1412   1.046       .  S
C1413      H1420   1.084       .  S
C1413      C1414   1.409       .  A
C1413      C1418   1.405       .  A
C1414      C1415   1.420       .  A
C1415      C1416   1.400       .  A
C1415      N1422   1.439       .  S
C1416      H1421   1.085       .  S
C1416      C1417   1.398       .  A
C1417      C1418   1.416       .  A
C1418      N1419   1.439       .  S
N1419      H1423   1.046       .  S
N1419      H1424   1.042       .  S
N1422      H1425   1.046       .  S
N1422      H1426   1.046       .  S
C1427      H1434   1.084       .  S
C1427      C1428   1.403       .  A
C1427      C1432   1.410       .  A
C1428      C1429   1.414       .  A
C1429      C1430   1.398       .  A
C1429      N1436   1.439       .  S
C1430      H1435   1.084       .  S
C1430      C1431   1.406       .  A
C1431      C1432   1.416       .  A
C1432      N1433   1.438       .  S
N1433      H1437   1.046       .  S
N1433      H1438   1.046       .  S
N1436      H1439   1.043       .  S
N1436      H1440   1.046       .  S
