geometry optimzed in LAMMPS
_audit_creation_date              2020-11-30 
_audit_creation_method            'lammps2cif' 
_symmetry_space_group_name_H-M    'P1' 
_symmetry_Int_Tables_number       1 
_symmetry_cell_setting            triclinic 
loop_ 
_symmetry_equiv_pos_as_xyz 
  x,y,z 
_cell_length_a                    24.13144786 
_cell_length_b                    24.168791709334876 
_cell_length_c                    24.092967045839092 
_cell_angle_alpha                 90.82283057391918 
_cell_angle_beta                  89.95749799388567 
_cell_angle_gamma                 86.85918012581129 
loop_ 
_atom_site_label 
_atom_site_type_symbol 
_atom_site_fract_x 
_atom_site_fract_y 
_atom_site_fract_z 
_atom_site_charge 
C1          C  0.17697983  0.19949953  0.18237565     0.00200
C2          C  0.13601402  0.16069571  0.14682156     0.00200
C3          C  0.92241548  0.64932781  0.44277735     0.00200
C4          C  0.88868529  0.67988510  0.39139030     0.00200
C5          C  0.65370170  0.44839763  0.94608148     0.00200
C6          C  0.69568388  0.41162499  0.90513064     0.00200
C7          C  0.46004528  0.91731823  0.65380711     0.00200
C8          C  0.40785493  0.88826149  0.68229020     0.00200
O9          O  0.49461519  0.42046117  0.14054445    -0.55200
C10         C  0.62968779  0.37710508  0.08814363     0.77500
O11         O  0.63140904  0.41183740  0.24848594    -0.56300
C12         C  0.45430969  0.39953712  0.16464841     0.77400
C13         C  0.54527825  0.25040609  0.21780552     0.79800
Cd14       Cd  0.56562020  0.36248543  0.18766535     1.37500
O15         O  0.57752251  0.37492866  0.08873581    -0.55200
O16         O  0.54202756  0.26592262  0.16805078    -0.54000
C17         C  0.59560695  0.44973145  0.26285557     0.79800
O18         O  0.56738716  0.28299637  0.25191037    -0.56300
O19         O  0.65445950  0.36672309  0.13349842    -0.54800
O20         O  0.46562058  0.36365844  0.20118608    -0.54800
O21         O  0.54613070  0.44307410  0.24854255    -0.53900
O22         O  0.35760188  0.38805738  0.16846512    -0.55200
C23         C  0.24266661  0.32542548  0.11387231     0.77500
O24         O  0.20869457  0.48344448  0.16515467    -0.56300
C25         C  0.39720571  0.41393142  0.14907765     0.77400
C26         C  0.30217567  0.47544435  0.00038471     0.79800
Cd27       Cd  0.28618318  0.43426178  0.11142424     1.37500
O28         O  0.29204817  0.33396266  0.10083133    -0.55200
O29         O  0.30218001  0.42421289  0.00973914    -0.54000
C30         C  0.24010009  0.50153234  0.20279464     0.79800
O31         O  0.28524968  0.50755019  0.03956326    -0.56300
O32         O  0.21030230  0.36798532  0.12190821    -0.54800
O33         O  0.38530641  0.45101273  0.11392400    -0.54800
O34         O  0.29166782  0.49292633  0.19531738    -0.53900
O35         O  0.08167725  0.55950984  0.34307468    -0.55200
C36         C  0.17019097  0.42994267  0.40567624     0.77500
O37         O  0.25053515  0.54030769  0.29400735    -0.56300
C38         C  0.06725228  0.59307760  0.38174639     0.77400
C39         C  0.25491718  0.58357449  0.44996370     0.79800
Cd40       Cd  0.17946530  0.54122122  0.36932771     1.37500
O41         O  0.13817707  0.46927296  0.42349725    -0.55200
O42         O  0.24295853  0.53341165  0.44694885    -0.54000
C43         C  0.21847182  0.52534414  0.25570071     0.79800
O44         O  0.23527614  0.61540134  0.41230091    -0.56300
O45         O  0.20675677  0.44180169  0.37106590    -0.54800
O46         O  0.10581855  0.60790664  0.41332632    -0.54800
O47         O  0.16749799  0.52618811  0.26760075    -0.53900
O48         O  0.14796213  0.25926491  0.34867215    -0.55200
C49         C  0.16372608  0.37325249  0.42293436     0.77500
O50         O  0.06189471  0.27028539  0.51538709    -0.56300
C51         C  0.14988385  0.20730606  0.34156389     0.77400
C52         C  0.23253684  0.22362605  0.52165070     0.79800
Cd53       Cd  0.14114196  0.26199118  0.44865987     1.37500
O54         O  0.19328421  0.33303632  0.40272350    -0.55200
O55         O  0.21552636  0.27394574  0.51993406    -0.54000
C56         C  0.02511385  0.27874001  0.47846489     0.79800
O57         O  0.20406210  0.18991307  0.49456161    -0.56300
O58         O  0.12679051  0.36210998  0.45754956    -0.54800
O59         O  0.14698815  0.17843491  0.38494496    -0.54800
O60         O  0.04012772  0.26909524  0.42899724    -0.53900
O61         O  0.45777442  0.09237393  0.60158804    -0.55200
C62         C  0.42599675  0.15979726  0.45709780     0.77500
O63         O  0.31470561  0.23932247  0.57602028    -0.56300
C64         C  0.41909099  0.07313734  0.62950962     0.77400
C65         C  0.48169025  0.26040006  0.60280530     0.79800
Cd66       Cd  0.40303178  0.17826789  0.57181096     1.37500
O67         O  0.44710640  0.12662391  0.49246680    -0.55200
O68         O  0.47653959  0.24135113  0.55426603    -0.54000
C69         C  0.28621889  0.20629173  0.54780142     0.79800
O70         O  0.44712650  0.24505090  0.63854605    -0.56300
O71         O  0.39703057  0.20114141  0.47525285    -0.54800
O72         O  0.37618697  0.10501116  0.63682882    -0.54800
O73         O  0.30898220  0.15886859  0.53785341    -0.53900
O74         O  0.35594018  0.19807183  0.27693695    -0.55200
C75         C  0.43198668  0.15050698  0.39762056     0.77500
O76         O  0.48443188  0.04029773  0.26265938    -0.56300
C77         C  0.32841165  0.17453737  0.23989430     0.77400
C78         C  0.51652870  0.20191877  0.23664767     0.79800
Cd79       Cd  0.43477917  0.13107069  0.28059588     1.37500
O80         O  0.40228296  0.17879999  0.36418261    -0.55200
O81         O  0.51391603  0.19095176  0.28758252    -0.54000
C82         C  0.44927822  0.01269045  0.28799842     0.79800
O83         O  0.48690769  0.17412360  0.20426221    -0.56300
O84         O  0.46518644  0.11346187  0.37714074    -0.54800
O85         O  0.35009106  0.12971701  0.21941611    -0.54800
O86         O  0.40362780  0.03789939  0.30063063    -0.53900
O87         O  0.75701403  0.24580918  0.93438783    -0.55200
C88         C  0.87237881  0.17641113  0.92454894     0.77500
O89         O  0.78853705  0.07855086  0.03036281    -0.56300
C90         C  0.70607546  0.25592499  0.94421796     0.77400
C91         C  0.72545421  0.07479535  0.87620617     0.79800
Cd92       Cd  0.76456414  0.14992580  0.95975444     1.37500
O93         O  0.85709565  0.17965447  0.97463373    -0.55200
O94         O  0.77631783  0.07604049  0.88834236    -0.54000
C95         C  0.79153889  0.11186786  0.07116158     0.79800
O96         O  0.69163215  0.10263457  0.90750114    -0.56300
O97         O  0.83757364  0.16061962  0.88938080    -0.54800
O98         O  0.67957369  0.21609569  0.96251546    -0.54800
O99         O  0.77294457  0.16098902  0.06312085    -0.53900
O100        O  0.04546419  0.14841073  0.96687092    -0.55200
C101        C  0.92829983  0.18946749  0.90931057     0.77500
O102        O  0.04473467  0.28697091  0.82065914    -0.56300
C103        C  0.08324873  0.17120767  0.99332635     0.77400
C104        C  0.09048013  0.12287153  0.81534059     0.79800
Cd105      Cd  0.04093667  0.20856355  0.88751184     1.37500
O106        O  0.94740147  0.18184355  0.86065834    -0.55200
O107        O  0.03851939  0.13298631  0.81756810    -0.54000
C108        C  0.02632447  0.32442126  0.85418629     0.79800
O109        O  0.12026667  0.15625939  0.84146275    -0.56300
O110        O  0.96038222  0.20785956  0.94560409    -0.54800
O111        O  0.10556840  0.21117348  0.96967571    -0.54800
O112        O  0.02240858  0.31033001  0.90418920    -0.53900
O113        O  0.88703877  0.48802048  0.50672457    -0.55200
C114        C  0.91123697  0.41528349  0.62581325     0.77500
O115        O  0.80180263  0.32627750  0.51622076    -0.56300
C116        C  0.89208102  0.49066826  0.45470451     0.77400
C117        C  0.97093835  0.30708546  0.49143253     0.79800
Cd118      Cd  0.88093105  0.38855445  0.51613830     1.37500
O119        O  0.93602465  0.43533234  0.58507081    -0.55200
O120        O  0.95988458  0.32407873  0.54012750    -0.54000
C121        C  0.76767154  0.36174972  0.53843320     0.79800
O122        O  0.93666989  0.32245110  0.45395939    -0.56300
O123        O  0.87491403  0.38085202  0.61553004    -0.54800
O124        O  0.88979733  0.44503865  0.42825671    -0.54800
O125        O  0.78252051  0.41094191  0.54082808    -0.53900
O126        O  0.83530159  0.48449306  0.78607374    -0.55200
C127        C  0.92196346  0.43275506  0.68231861     0.77500
O128        O  0.00195827  0.54704335  0.79411417    -0.56300
C129        C  0.82416178  0.47206530  0.83531272     0.77400
C130        C  0.00367262  0.37888569  0.83488501     0.79800
Cd131      Cd  0.93542683  0.47201443  0.79228385     1.37500
O132        O  0.89270727  0.41674189  0.72185128    -0.55200
O133        O  0.99961557  0.38880106  0.78367491    -0.54000
C134        C  0.96724386  0.58419896  0.77694695     0.79800
O135        O  0.98165089  0.41543448  0.86771146    -0.56300
O136        O  0.95920638  0.46590257  0.69376847    -0.54800
O137        O  0.86509822  0.46227079  0.86749083    -0.54800
O138        O  0.91718393  0.57210244  0.77597488    -0.53900
O139        O  0.29768489  0.72710785  0.66453868    -0.55200
C140        C  0.18860880  0.66852759  0.62788475     0.77500
O141        O  0.29453067  0.57171286  0.53941181    -0.56300
C142        C  0.33916564  0.74969660  0.64512923     0.77400
C143        C  0.34785002  0.57789193  0.69788436     0.79800
Cd144      Cd  0.30218193  0.64468588  0.60965492     1.37500
O145        O  0.21107576  0.62226200  0.64166660    -0.55200
O146        O  0.29638481  0.58516759  0.68922809    -0.54000
C147        C  0.28376223  0.60377222  0.49933722     0.79800
O148        O  0.38014882  0.59613436  0.66148752    -0.56300
O149        O  0.21846647  0.70256697  0.60444397    -0.54800
O150        O  0.36673978  0.72331482  0.60713550    -0.54800
O151        O  0.29278539  0.65433079  0.50707005    -0.53900
O152        O  0.11125848  0.73188908  0.63275458    -0.55200
C153        C  0.96618471  0.71784119  0.57290675     0.77500
O154        O  0.95106566  0.67198873  0.73202853    -0.56300
C155        C  0.13144967  0.68343505  0.64097343     0.77400
C156        C  0.05640856  0.82036232  0.72522670     0.79800
Cd157      Cd  0.02431861  0.71689499  0.67724623     1.37500
O158        O  0.00415884  0.68124309  0.58266341    -0.55200
O159        O  0.02625908  0.81976263  0.68243687    -0.54000
C160        C  0.98503684  0.63503582  0.75130360     0.79800
O161        O  0.06378771  0.77504489  0.75041475    -0.56300
O162        O  0.95228425  0.75082065  0.61259340    -0.54800
O163        O  0.10072774  0.64936639  0.66312322    -0.54800
O164        O  0.03568904  0.64018403  0.74120271    -0.53900
O165        O  0.25601355  0.96304114  0.74732796    -0.55200
C166        C  0.17592547  0.92812191  0.88316035     0.77500
O167        O  0.08419772  0.03550690  0.76784859    -0.56300
C168        C  0.25431337  0.94248948  0.69886537     0.77400
C169        C  0.08624863  0.86922857  0.74191468     0.79800
Cd170      Cd  0.15664220  0.95790683  0.77027480     1.37500
O171        O  0.21181216  0.91639384  0.84587921    -0.55200
O172        O  0.12052165  0.86641332  0.78150444    -0.54000
C173        C  0.11432541  0.07106886  0.78989526     0.79800
O174        O  0.08272467  0.91424454  0.71524688    -0.56300
O175        O  0.13076635  0.95213376  0.86806646    -0.54800
O176        O  0.20641588  0.93399484  0.68026174    -0.54800
O177        O  0.16521422  0.05697660  0.79483329    -0.53900
O178        O  0.15494129  0.93560630  0.97946161    -0.55200
C179        C  0.20476821  0.01902761  0.09567600     0.77500
O180        O  0.16811334  0.85816544  0.13264937    -0.56300
C181        C  0.18714899  0.91684734  0.94137878     0.77400
C182        C  0.33059180  0.86738501  0.04693102     0.79800
Cd183      Cd  0.21653520  0.90522652  0.05559494     1.37500
O184        O  0.22827684  0.00455019  0.05069716    -0.55200
O185        O  0.31670081  0.91811919  0.05306783    -0.54000
C186        C  0.13658836  0.83224182  0.10033683     0.79800
O187        O  0.29377486  0.83350952  0.05689697    -0.56300
O188        O  0.18795454  0.98038418  0.12538273    -0.54800
O189        O  0.23080527  0.88991042  0.95607388    -0.54800
O190        O  0.14512863  0.83691055  0.04890261    -0.53900
O191        O  0.45315752  0.60637908  0.91509628    -0.55200
C192        C  0.50621734  0.47727550  0.88125768     0.77500
O193        O  0.34982591  0.46446790  0.91300184    -0.56300
C194        C  0.42363746  0.64797963  0.89947646     0.77400
C195        C  0.36755625  0.55536254  0.75112412     0.79800
Cd196      Cd  0.40118128  0.53780412  0.86528678     1.37500
O197        O  0.49929818  0.52910259  0.88790132    -0.55200
O198        O  0.41836152  0.55092746  0.76381068    -0.54000
C199        C  0.32814651  0.49651440  0.95003892     0.79800
O200        O  0.33352900  0.54487375  0.78897909    -0.56300
O201        O  0.46495593  0.45233052  0.86284451    -0.54800
O202        O  0.38199642  0.63887788  0.86948493    -0.54800
O203        O  0.33581164  0.54744179  0.94493176    -0.53900
O204        O  0.44387175  0.82154555  0.84545960    -0.55200
C205        C  0.43801334  0.70391164  0.91462683     0.77500
O206        O  0.54255624  0.80908143  0.01280211    -0.56300
C207        C  0.45381974  0.87163070  0.83814734     0.77400
C208        C  0.38305999  0.84942433  0.01998706     0.79800
Cd209      Cd  0.46838184  0.81338445  0.94206372     1.37500
O210        O  0.40972664  0.74594802  0.89795462    -0.55200
O211        O  0.39517670  0.79878635  0.01038922    -0.54000
C212        C  0.58101344  0.79420124  0.97915308     0.79800
O213        O  0.41419689  0.88378476  0.99830830    -0.56300
O214        O  0.48002345  0.71242024  0.94426125    -0.54800
O215        O  0.47314434  0.89705152  0.87967484    -0.54800
O216        O  0.56913731  0.79566948  0.92811591    -0.53900
O217        O  0.73944895  0.62656988  0.31568304    -0.55200
C218        C  0.66792912  0.65056067  0.19865571     0.77500
O219        O  0.57454926  0.54065045  0.29945270    -0.56300
C220        C  0.74303138  0.62339655  0.36787299     0.77400
C221        C  0.56196508  0.70513740  0.34333950     0.79800
Cd222      Cd  0.64011709  0.61566872  0.30717274     1.37500
O223        O  0.69366228  0.66593933  0.24127130    -0.55200
O224        O  0.57060352  0.69300760  0.29287439    -0.54000
C225        C  0.61085029  0.50247341  0.28793896     0.79800
O226        O  0.58539803  0.67289855  0.37832355    -0.56300
O227        O  0.62775043  0.61996024  0.20592069    -0.54800
O228        O  0.69858279  0.61412240  0.39357516    -0.54800
O229        O  0.66081416  0.51458315  0.29271619    -0.53900
O230        O  0.71856470  0.59445784  0.02836905    -0.55200
C231        C  0.68519623  0.66651349  0.14366169     0.77500
O232        O  0.79079120  0.76480257  0.05554721    -0.56300
C233        C  0.71343398  0.59277023  0.97616479     0.77400
C234        C  0.63406203  0.76909876  0.99853797     0.79800
Cd235      Cd  0.72284627  0.69491766  0.03658494     1.37500
O236        O  0.66004456  0.65155294  0.10049732    -0.55200
O237        O  0.64223170  0.76031192  0.04946763    -0.54000
C238        C  0.83345516  0.73199968  0.05563903     0.79800
O239        O  0.67086293  0.74934295  0.96512715    -0.56300
O240        O  0.72699726  0.69504576  0.13718417    -0.54800
O241        O  0.71855004  0.63779110  0.95076396    -0.54800
O242        O  0.82685235  0.68292302  0.03897958    -0.53900
O243        O  0.70335677  0.31015309  0.72942445    -0.55200
C244        C  0.65518400  0.19327377  0.67437496     0.77500
O245        O  0.56901503  0.29649993  0.58189638    -0.56300
C246        C  0.67952495  0.35046233  0.75517757     0.77400
C247        C  0.71787043  0.34528949  0.56811342     0.79800
Cd248      Cd  0.64234108  0.30770669  0.65068350     1.37500
O249        O  0.69473763  0.21849392  0.65374468    -0.55200
O250        O  0.70927314  0.29463465  0.57438850    -0.54000
C251        C  0.53062422  0.29157220  0.61716220     0.79800
O252        O  0.68609865  0.38004057  0.59475598    -0.56300
O253        O  0.61046284  0.22095265  0.68401178    -0.54800
O254        O  0.63783223  0.37456069  0.73169575    -0.54800
O255        O  0.54044235  0.30711553  0.66641633    -0.53900
O256        O  0.61937073  0.10786291  0.70078141    -0.55200
C257        C  0.59396389  0.93922895  0.70465842     0.77500
O258        O  0.75285711  0.96810660  0.66222818    -0.56300
C259        C  0.66087683  0.13491048  0.68710568     0.77400
C260        C  0.70747964  0.04828219  0.82440431     0.79800
Cd261      Cd  0.67526486  0.02206844  0.71257081     1.37500
O262        O  0.58621116  0.98404086  0.67864475    -0.55200
O263        O  0.65755746  0.05377609  0.80854499    -0.54000
C264        C  0.74066387  0.99145759  0.61650087     0.79800
O265        O  0.74192104  0.02433456  0.79075521    -0.56300
O266        O  0.63686563  0.93493098  0.73477123    -0.54800
O267        O  0.70795041  0.10940645  0.68512289    -0.54800
O268        O  0.70136280  0.02805543  0.61727846    -0.53900
O269        O  0.96018158  0.76007427  0.25152961    -0.55200
C270        C  0.94107179  0.89177170  0.17375139     0.77500
O271        O  0.05584302  0.78018598  0.08701952    -0.56300
C272        C  0.95594162  0.70832502  0.24644492     0.77400
C273        C  0.88560181  0.74903085  0.08078638     0.79800
Cd274      Cd  0.97604184  0.77939782  0.15258437     1.37500
O275        O  0.93943681  0.85549208  0.21102506    -0.55200
O276        O  0.88693250  0.79536909  0.10543308    -0.54000
C277        C  0.08801276  0.80372583  0.12031333     0.79800
O278        O  0.92896333  0.71708229  0.08428603    -0.56300
O279        O  0.95724564  0.87579803  0.12592874    -0.54800
O280        O  0.96718232  0.68757174  0.19889497    -0.54800
O281        O  0.07268821  0.80694046  0.17042444    -0.53900
O282        O  0.93274977  0.98752869  0.15147554    -0.55200
C283        C  0.00118417  0.11532676  0.21563052     0.77500
O284        O  0.82978194  0.12913313  0.16227310    -0.56300
C285        C  0.92534949  0.94958882  0.18590498     0.77400
C286        C  0.84379342  0.04445327  0.31922407     0.79800
Cd287      Cd  0.89508930  0.06235932  0.21344957     1.37500
O288        O  0.99391284  0.06755106  0.23341462    -0.55200
O289        O  0.89376805  0.05716474  0.31656774    -0.54000
C290        C  0.82111679  0.09538429  0.12259238     0.79800
O291        O  0.81523185  0.05102916  0.27557745    -0.56300
O292        O  0.95814215  0.14245691  0.19869316    -0.54800
O293        O  0.90411375  0.96390540  0.23205726    -0.54800
O294        O  0.84384896  0.04726114  0.12672587    -0.53900
O295        O  0.50098320  0.90479135  0.48074052    -0.55200
C296        C  0.61625500  0.90587728  0.40761387     0.77500
O297        O  0.51130785  0.79067407  0.32379750    -0.56300
C298        C  0.45281050  0.89083588  0.49282943     0.77400
C299        C  0.46458847  0.95798033  0.31094040     0.79800
Cd300      Cd  0.50609218  0.87357393  0.38628171     1.37500
O301        O  0.57501124  0.92987226  0.43194375    -0.55200
O302        O  0.51432981  0.93902680  0.30965393    -0.54000
C303        C  0.53234172  0.75785864  0.35959318     0.79800
O304        O  0.43135911  0.93205678  0.34039225    -0.56300
O305        O  0.60635904  0.86901578  0.37185338    -0.54800
O306        O  0.42602160  0.86814252  0.45408455    -0.54800
O307        O  0.53246561  0.77565546  0.40911017    -0.53900
O308        O  0.79678988  0.83894966  0.43352742    -0.55200
C309        C  0.67294192  0.91875854  0.42118351     0.77500
O310        O  0.76060060  0.00771753  0.52228954    -0.56300
C311        C  0.84924480  0.83596707  0.43423524     0.77400
C312        C  0.82216244  0.01566115  0.36726138     0.79800
Cd313      Cd  0.78475348  0.93987485  0.44971946     1.37500
O314        O  0.71385467  0.89375428  0.39722792    -0.55200
O315        O  0.77574533  0.99421856  0.36466985    -0.54000
C316        C  0.76609820  0.97550208  0.56298633     0.79800
O317        O  0.85092682  0.00537461  0.41023641    -0.56300
O318        O  0.68343790  0.95425478  0.45817309    -0.54800
O319        O  0.87250884  0.88054933  0.44547172    -0.54800
O320        O  0.78832781  0.92774770  0.55311104    -0.53900
C321        C  0.42378428  0.86735930  0.74106791    -0.13800
C322        C  0.44208327  0.89816916  0.78384819    -0.28900
H323        H  0.42143185  0.82324423  0.74855762     0.15200
H324        H  0.44759716  0.94210989  0.77911356     0.15800
C325        C  0.35593406  0.92745223  0.69248705    -0.13800
C326        C  0.30565033  0.92376941  0.66834186    -0.28900
H327        H  0.35848834  0.95628189  0.72735524     0.15200
H328        H  0.30111491  0.89846541  0.63122999     0.15800
C329        C  0.35257909  0.80379352  0.66826715    -0.13800
C330        C  0.39351877  0.83476463  0.65056732    -0.28900
H331        H  0.32752996  0.81852562  0.70355427     0.15200
H332        H  0.41970933  0.81817223  0.61704869     0.15800
C333        C  0.46696162  0.91335203  0.59048182    -0.13800
C334        C  0.43122927  0.89902214  0.55028055    -0.28900
H335        H  0.50780656  0.92492356  0.57696853     0.15200
H336        H  0.38850096  0.89078656  0.55931620     0.15800
C337        C  0.51192913  0.88184455  0.67235908    -0.13800
C338        C  0.56073664  0.89031087  0.69763502    -0.28900
H339        H  0.50633939  0.83780552  0.66571004     0.15200
H340        H  0.58339117  0.85251617  0.71063338     0.15800
C341        C  0.45848693  0.98049483  0.66544196    -0.13800
C342        C  0.41815814  0.01344945  0.64124238    -0.28900
H343        H  0.49064608  0.99955605  0.68864687     0.15200
H344        H  0.38520905  0.99402282  0.61892442     0.15800
C345        C  0.67201669  0.39937203  0.84664892    -0.13800
C346        C  0.70048346  0.36603802  0.81016675    -0.28900
H347        H  0.63338645  0.41818287  0.83207323     0.15200
H348        H  0.74024222  0.34666145  0.82237298     0.15800
C349        C  0.75152960  0.43948719  0.89749570    -0.13800
C350        C  0.76597254  0.46565555  0.85114181    -0.28900
H351        H  0.78294846  0.43352839  0.92956316     0.15200
H352        H  0.73507034  0.47553559  0.81956945     0.15800
C353        C  0.68011171  0.31153658  0.93335988    -0.13800
C354        C  0.71287392  0.35485716  0.92973365    -0.28900
H355        H  0.63599061  0.31637196  0.92465705     0.15200
H356        H  0.75638000  0.34689415  0.94044274     0.15800
C357        C  0.68241726  0.49711502  0.97419716    -0.13800
C358        C  0.69839900  0.54192435  0.94661658    -0.28900
H359        H  0.68559579  0.49822506  0.01921572     0.15200
H360        H  0.69377179  0.54371124  0.90185404     0.15800
C361        C  0.60245087  0.47528293  0.91619040    -0.13800
C362        C  0.55878206  0.44750053  0.89742607    -0.28900
H363        H  0.59792605  0.52026169  0.91521273     0.15200
H364        H  0.56038480  0.40250775  0.89798085     0.15800
C365        C  0.62989956  0.41490235  0.99398054    -0.13800
C366        C  0.65910738  0.39500872  0.03802594    -0.28900
H367        H  0.58519595  0.41162035  0.99562575     0.15200
H368        H  0.70378021  0.39826868  0.03973705     0.15800
C369        C  0.85759637  0.73595812  0.40829122    -0.13800
C370        C  0.88191821  0.78363806  0.42144626    -0.28900
H371        H  0.81252622  0.73876283  0.40683838     0.15200
H372        H  0.92670862  0.78485001  0.42286764     0.15800
C373        C  0.92824848  0.69675610  0.34414374    -0.13800
C374        C  0.93375000  0.67518351  0.29212066    -0.28900
H375        H  0.95297414  0.73198944  0.35266574     0.15200
H376        H  0.91763817  0.63558921  0.28097832     0.15800
C377        C  0.79560603  0.63423254  0.39696829    -0.13800
C378        C  0.84193676  0.64492075  0.36801099    -0.28900
H379        H  0.79383106  0.64236697  0.44143559     0.15200
H380        H  0.84073074  0.63612301  0.32390723     0.15800
C381        C  0.91092058  0.68259627  0.49739279    -0.13800
C382        C  0.94054769  0.72364486  0.51774314    -0.28900
H383        H  0.86709644  0.68619036  0.50855736     0.15200
H384        H  0.91785443  0.76363854  0.51912044     0.15800
C385        C  0.90226436  0.59157289  0.45868511    -0.13800
C386        C  0.90222694  0.54436917  0.42758697    -0.28900
H387        H  0.88942253  0.58702934  0.50169152     0.15200
H388        H  0.91156006  0.54427545  0.38365699     0.15800
C389        C  0.98597781  0.64095617  0.43254052    -0.13800
C390        C  0.00773554  0.61053809  0.38932953    -0.28900
H391        H  0.01452361  0.65717180  0.46272854     0.15200
H392        H  0.98002783  0.59421077  0.35868905     0.15800
C393        C  0.07553875  0.16499009  0.16983897    -0.13800
C394        C  0.05829004  0.13453532  0.21240472    -0.28900
H395        H  0.04329313  0.18539207  0.14464485     0.15200
H396        H  0.08887708  0.11187846  0.23743118     0.15800
C397        C  0.19613606  0.07848381  0.10974097    -0.10600
C398        C  0.15623227  0.09858514  0.14495454    -0.28900
H399        H  0.21872508  0.10720503  0.08519470     0.15200
H400        H  0.13245984  0.06816738  0.16572590     0.15800
C401        C  0.09717049  0.15190391  0.04967218    -0.13800
C402        C  0.13007674  0.17842512  0.08518933    -0.28900
H403        H  0.07556416  0.11657986  0.06427588     0.15200
H404        H  0.15126383  0.21279938  0.06863261     0.15800
C405        C  0.23614152  0.17283993  0.19309284    -0.13800
C406        C  0.27381598  0.19947787  0.22328202    -0.28900
H407        H  0.24840547  0.13136106  0.17941859     0.15200
H408        H  0.26278726  0.24085826  0.23941172     0.15800
C409        C  0.15307121  0.21495811  0.24029099    -0.13800
C410        C  0.15784688  0.18253128  0.28542225    -0.28900
H411        H  0.13733278  0.25751974  0.24744108     0.15200
H412        H  0.17308222  0.13955271  0.28142165     0.15800
C413        C  0.18274873  0.25616081  0.15406277    -0.13800
C414        C  0.22685005  0.26817478  0.12293153    -0.28900
H415        H  0.15196381  0.28963545  0.16315753     0.15200
H416        H  0.25731359  0.23539739  0.11108238     0.15800
loop_ 
_geom_bond_atom_site_label_1 
_geom_bond_atom_site_label_2 
_geom_bond_distance 
_geom_bond_site_symmetry_2 
_ccdc_geom_bond_type 
C1            C2   1.634       .  S
C1          C405   1.557       .  S
C1          C409   1.543       .  S
C1          C413   1.552       .  S
C2          C393   1.558       .  S
C2          C398   1.553       .  S
C2          C402   1.556       .  S
C3            C4   1.644       .  S
C3          C381   1.549       .  S
C3          C385   1.556       .  S
C3          C389   1.555       .  S
C4          C369   1.561       .  S
C4          C373   1.558       .  S
C4          C378   1.548       .  S
C5            C6   1.632       .  S
C5          C357   1.547       .  S
C5          C361   1.548       .  S
C5          C365   1.547       .  S
C6          C345   1.551       .  S
C6          C349   1.551       .  S
C6          C354   1.539       .  S
C7            C8   1.631       .  S
C7          C333   1.536       .  S
C7          C337   1.548       .  S
C7          C341   1.547       .  S
C8          C321   1.552       .  S
C8          C325   1.546       .  S
C8          C330   1.548       .  S
O9           C12   1.265       .  A
O9          Cd14   2.444       .  S
C10          O19   1.268       .  A
C10          O15   1.263       .  A
C10         C366   1.482       .  S
O11          C17   1.268       .  A
O11         Cd14   2.500       .  S
C12          O20   1.264       .  A
C12          C25   1.453       .  S
C13          O18   1.268       .  A
C13          O16   1.262       .  A
C13          C78   1.471       .  S
Cd14         O21   2.446       .  S
Cd14         O20   2.433       .  S
Cd14         O19   2.517       .  S
Cd14         O15   2.426       .  S
Cd14         O18   2.483       .  S
Cd14         O16   2.472       .  S
C17          O21   1.261       .  A
C17         C225   1.468       .  S
O22          C25   1.263       .  A
O22         Cd27   2.438       .  S
C23          O32   1.269       .  A
C23          O28   1.261       .  A
C23         C414   1.475       .  S
O24          C30   1.270       .  A
O24         Cd27   2.509       .  S
C25          O33   1.264       .  A
C26          O31   1.266       .  A
C26          O29   1.262       .  A
C26         C199   1.475   1_554  S
Cd27         O34   2.460       .  S
Cd27         O33   2.448       .  S
Cd27         O32   2.513       .  S
Cd27         O28   2.430       .  S
Cd27         O31   2.494       .  S
Cd27         O29   2.486       .  S
C30          O34   1.263       .  A
C30          C43   1.474       .  S
O35          C38   1.263       .  A
O35         Cd40   2.462       .  S
C36          O45   1.261       .  A
C36          O41   1.262       .  A
C36          C49   1.454       .  S
O37          C43   1.266       .  A
O37         Cd40   2.495       .  S
C38          O46   1.266       .  A
C38         C390   1.485       .  S
C39          O44   1.273       .  A
C39          O42   1.263       .  A
C39         C147   1.470       .  S
Cd40         O47   2.492       .  S
Cd40         O46   2.552       .  S
Cd40         O45   2.457       .  S
Cd40         O41   2.444       .  S
Cd40         O44   2.513       .  S
Cd40         O42   2.421       .  S
C43          O47   1.262       .  A
O48          C51   1.263       .  A
O48         Cd53   2.414       .  S
C49          O58   1.263       .  A
C49          O54   1.265       .  A
O50          C56   1.268       .  A
O50         Cd53   2.495       .  S
C51          O59   1.269       .  A
C51         C410   1.479       .  S
C52          O57   1.268       .  A
C52          O55   1.263       .  A
C52          C69   1.483       .  S
Cd53         O60   2.481       .  S
Cd53         O59   2.517       .  S
Cd53         O58   2.432       .  S
Cd53         O54   2.459       .  S
Cd53         O57   2.516       .  S
Cd53         O55   2.510       .  S
C56          O60   1.260       .  A
C56         C117   1.473   1_455  S
O61          C64   1.263       .  A
O61         Cd66   2.513       .  S
C62          O71   1.260       .  A
C62          O67   1.266       .  A
C62          C75   1.453       .  S
O63          C69   1.272       .  A
O63         Cd66   2.526       .  S
C64          O72   1.267       .  A
C64         C342   1.475       .  S
C65          O70   1.272       .  A
C65          O68   1.259       .  A
C65         C251   1.474       .  S
Cd66         O73   2.480       .  S
Cd66         O72   2.492       .  S
Cd66         O71   2.402       .  S
Cd66         O67   2.475       .  S
Cd66         O70   2.537       .  S
Cd66         O68   2.442       .  S
C69          O73   1.263       .  A
O74          C77   1.261       .  A
O74         Cd79   2.432       .  S
C75          O84   1.263       .  A
C75          O80   1.262       .  A
O76          C82   1.269       .  A
O76         Cd79   2.474       .  S
C77          O85   1.270       .  A
C77         C406   1.476       .  S
C78          O83   1.269       .  A
C78          O81   1.261       .  A
Cd79         O86   2.467       .  S
Cd79         O85   2.522       .  S
Cd79         O84   2.475       .  S
Cd79         O80   2.415       .  S
Cd79         O83   2.498       .  S
Cd79         O81   2.463       .  S
C82          O86   1.264       .  A
C82         C299   1.469   1_545  S
O87          C90   1.262       .  A
O87         Cd92   2.402       .  S
C88          O97   1.263       .  A
C88          O93   1.262       .  A
C88         C101   1.451       .  S
O89          C95   1.266       .  A
O89         Cd92   2.486   1_554  S
C90          O98   1.269       .  A
C90         C353   1.478       .  S
C91          O96   1.270       .  A
C91          O94   1.264       .  A
C91         C260   1.471       .  S
Cd92         O99   2.510   1_556  S
Cd92         O98   2.531       .  S
Cd92         O97   2.471       .  S
Cd92         O93   2.408       .  S
Cd92         O96   2.484       .  S
Cd92         O94   2.467       .  S
C95          O99   1.264       .  A
C95         C290   1.479       .  S
O100        C103   1.260       .  A
O100       Cd105   2.417       .  S
C101        O110   1.261       .  A
C101        O106   1.267       .  A
O102        C108   1.266       .  A
O102       Cd105   2.510       .  S
C103        O111   1.273       .  A
C103        C401   1.475   1_556  S
C104        O109   1.270       .  A
C104        O107   1.265       .  A
C104        C173   1.474       .  S
Cd105       O112   2.502       .  S
Cd105       O111   2.523       .  S
Cd105       O110   2.395   1_455  S
Cd105       O106   2.466   1_455  S
Cd105       O109   2.487       .  S
Cd105       O107   2.470       .  S
C108        O112   1.262       .  A
C108        C130   1.479       .  S
O113        C116   1.262       .  A
O113       Cd118   2.430       .  S
C114        O123   1.264       .  A
C114        O119   1.265       .  A
C114        C127   1.447       .  S
O115        C121   1.268       .  A
O115       Cd118   2.495       .  S
C116        O124   1.270       .  A
C116        C386   1.493       .  S
C117        O122   1.270       .  A
C117        O120   1.261       .  A
Cd118       O125   2.477       .  S
Cd118       O124   2.551       .  S
Cd118       O123   2.409       .  S
Cd118       O119   2.433       .  S
Cd118       O122   2.510       .  S
Cd118       O120   2.469       .  S
C121        O125   1.261       .  A
C121        C247   1.474       .  S
O126        C129   1.260       .  A
O126       Cd131   2.423       .  S
C127        O136   1.264       .  A
C127        O132   1.263       .  A
O128        C134   1.268   1_455  A
O128       Cd131   2.487   1_455  S
C129        O137   1.270       .  A
C129        C350   1.472       .  S
C130        O135   1.271   1_455  A
C130        O133   1.263   1_455  A
Cd131       O138   2.472       .  S
Cd131       O137   2.504       .  S
Cd131       O136   2.442       .  S
Cd131       O132   2.411       .  S
Cd131       O135   2.515       .  S
Cd131       O133   2.477       .  S
C134        O138   1.259       .  A
C134        C160   1.468       .  S
O139        C142   1.259       .  A
O139       Cd144   2.373       .  S
C140        O149   1.262       .  A
C140        O145   1.265       .  A
C140        C155   1.440       .  S
O141        C147   1.265       .  A
O141       Cd144   2.441       .  S
C142        O150   1.274       .  A
C142        C329   1.467       .  S
C143        O148   1.272       .  A
C143        O146   1.263       .  A
C143        C195   1.470       .  S
Cd144       O151   2.495       .  S
Cd144       O150   2.524       .  S
Cd144       O149   2.398       .  S
Cd144       O145   2.421       .  S
Cd144       O148   2.506       .  S
Cd144       O146   2.422       .  S
C147        O151   1.264       .  A
O152        C155   1.262       .  A
O152       Cd157   2.403       .  S
C153        O162   1.269       .  A
C153        O158   1.263   1_655  A
C153        C382   1.472       .  S
O154        C160   1.272       .  A
O154       Cd157   2.509   1_655  S
C155        O163   1.261       .  A
C156        O161   1.264       .  A
C156        O159   1.263       .  A
C156        C169   1.468       .  S
Cd157       O164   2.432       .  S
Cd157       O163   2.415       .  S
Cd157       O162   2.450   1_455  S
Cd157       O158   2.483       .  S
Cd157       O161   2.463       .  S
Cd157       O159   2.491       .  S
C160        O164   1.259   1_655  A
O165        C168   1.264       .  A
O165       Cd170   2.471       .  S
C166        O175   1.263       .  A
C166        O171   1.266       .  A
C166        C181   1.456       .  S
O167        C173   1.267       .  A
O167       Cd170   2.494   1_545  S
C168        O176   1.266       .  A
C168        C326   1.486       .  S
C169        O174   1.270       .  A
C169        O172   1.263       .  A
Cd170       O177   2.478   1_565  S
Cd170       O176   2.523       .  S
Cd170       O175   2.445       .  S
Cd170       O171   2.451       .  S
Cd170       O174   2.495       .  S
Cd170       O172   2.439       .  S
C173        O177   1.262       .  A
O178        C181   1.265       .  A
O178       Cd183   2.457   1_556  S
C179        O188   1.269   1_545  A
C179        O184   1.259       .  A
C179        C397   1.475       .  S
O180        C186   1.271       .  A
O180       Cd183   2.512       .  S
C181        O189   1.261       .  A
C182        O187   1.266       .  A
C182        O185   1.260       .  A
C182        C208   1.464       .  S
Cd183       O190   2.455       .  S
Cd183       O189   2.442   1_554  S
Cd183       O188   2.525       .  S
Cd183       O184   2.437   1_565  S
Cd183       O187   2.475       .  S
Cd183       O185   2.455       .  S
C186        O190   1.264       .  A
C186        C277   1.476       .  S
O191        C194   1.262       .  A
O191       Cd196   2.436       .  S
C192        O201   1.269       .  A
C192        O197   1.262       .  A
C192        C362   1.479       .  S
O193        C199   1.267       .  A
O193       Cd196   2.509       .  S
C194        O202   1.265       .  A
C194        C205   1.455       .  S
C195        O200   1.264       .  A
C195        O198   1.263       .  A
Cd196       O203   2.483       .  S
Cd196       O202   2.462       .  S
Cd196       O201   2.507       .  S
Cd196       O197   2.429       .  S
Cd196       O200   2.461       .  S
Cd196       O198   2.507       .  S
C199        O203   1.262       .  A
O204        C207   1.262       .  A
O204       Cd209   2.410       .  S
C205        O214   1.265       .  A
C205        O210   1.263       .  A
O206        C212   1.266   1_554  A
O206       Cd209   2.472   1_554  S
C207        O215   1.269       .  A
C207        C322   1.486       .  S
C208        O213   1.268   1_554  A
C208        O211   1.261       .  A
Cd209       O216   2.467       .  S
Cd209       O215   2.544       .  S
Cd209       O214   2.442       .  S
Cd209       O210   2.448       .  S
Cd209       O213   2.476       .  S
Cd209       O211   2.457   1_556  S
C212        O216   1.263       .  A
C212        C234   1.466       .  S
O217        C220   1.264       .  A
O217       Cd222   2.434       .  S
C218        O227   1.265       .  A
C218        O223   1.262       .  A
C218        C231   1.452       .  S
O219        C225   1.265       .  A
O219       Cd222   2.476       .  S
C220        O228   1.270       .  A
C220        C377   1.484       .  S
C221        O226   1.268       .  A
C221        O224   1.261       .  A
C221        C303   1.474       .  S
Cd222       O229   2.486       .  S
Cd222       O228   2.515       .  S
Cd222       O227   2.461       .  S
Cd222       O223   2.427       .  S
Cd222       O226   2.515       .  S
Cd222       O224   2.470       .  S
C225        O229   1.261       .  A
O230        C233   1.264   1_554  A
O230       Cd235   2.441       .  S
C231        O240   1.264       .  A
C231        O236   1.263       .  A
O232        C238   1.265       .  A
O232       Cd235   2.456       .  S
C233        O241   1.268       .  A
C233        C358   1.474       .  S
C234        O239   1.267       .  A
C234        O237   1.262   1_556  A
Cd235       O242   2.511       .  S
Cd235       O241   2.475   1_554  S
Cd235       O240   2.426       .  S
Cd235       O236   2.446       .  S
Cd235       O239   2.481   1_554  S
Cd235       O237   2.455       .  S
C238        O242   1.265       .  A
C238        C273   1.473       .  S
O243        C246   1.259       .  A
O243       Cd248   2.404       .  S
C244        O253   1.258       .  A
C244        O249   1.265       .  A
C244        C259   1.447       .  S
O245        C251   1.268       .  A
O245       Cd248   2.448       .  S
C246        O254   1.272       .  A
C246        C346   1.470       .  S
C247        O252   1.272       .  A
C247        O250   1.264       .  A
Cd248       O255   2.489       .  S
Cd248       O254   2.514       .  S
Cd248       O253   2.420       .  S
Cd248       O249   2.441       .  S
Cd248       O252   2.501       .  S
Cd248       O250   2.452       .  S
C251        O255   1.266       .  A
O256        C259   1.271       .  A
O256       Cd261   2.431       .  S
C257        O266   1.265       .  A
C257        O262   1.264       .  A
C257        C338   1.472       .  S
O258        C264   1.272       .  A
O258       Cd261   2.522   1_565  S
C259        O267   1.263       .  A
C260        O265   1.271       .  A
C260        O263   1.265       .  A
Cd261       O268   2.389       .  S
Cd261       O267   2.395       .  S
Cd261       O266   2.414   1_545  S
Cd261       O262   2.516   1_545  S
Cd261       O265   2.480       .  S
Cd261       O263   2.455       .  S
C264        O268   1.261   1_565  A
C264        C316   1.465       .  S
O269        C272   1.265       .  A
O269       Cd274   2.469       .  S
C270        O279   1.265       .  A
C270        O275   1.266       .  A
C270        C285   1.453       .  S
O271        C277   1.267       .  A
O271       Cd274   2.491   1_455  S
C272        O280   1.267       .  A
C272        C374   1.487       .  S
C273        O278   1.270       .  A
C273        O276   1.262       .  A
Cd274       O281   2.496   1_655  S
Cd274       O280   2.518       .  S
Cd274       O279   2.444       .  S
Cd274       O275   2.427       .  S
Cd274       O278   2.527       .  S
Cd274       O276   2.447       .  S
C277        O281   1.263       .  A
O282        C285   1.265       .  A
O282       Cd287   2.463   1_565  S
C283        O292   1.268   1_455  A
C283        O288   1.259   1_455  A
C283        C394   1.480       .  S
O284        C290   1.273       .  A
O284       Cd287   2.528       .  S
C285        O293   1.260       .  A
C286        O291   1.265       .  A
C286        O289   1.262       .  A
C286        C312   1.469       .  S
Cd287       O294   2.462       .  S
Cd287       O293   2.426   1_545  S
Cd287       O292   2.556       .  S
Cd287       O288   2.443       .  S
Cd287       O291   2.469       .  S
Cd287       O289   2.490       .  S
C290        O294   1.264       .  A
O295        C298   1.263       .  A
O295       Cd300   2.388       .  S
C296        O305   1.263       .  A
C296        O301   1.264       .  A
C296        C309   1.456       .  S
O297        C303   1.268       .  A
O297       Cd300   2.486       .  S
C298        O306   1.271       .  A
C298        C334   1.485       .  S
C299        O304   1.267       .  A
C299        O302   1.261       .  A
Cd300       O307   2.486       .  S
Cd300       O306   2.539       .  S
Cd300       O305   2.440       .  S
Cd300       O301   2.457       .  S
Cd300       O304   2.498       .  S
Cd300       O302   2.463       .  S
C303        O307   1.262       .  A
O308        C311   1.264       .  A
O308       Cd313   2.466       .  S
C309        O318   1.264       .  A
C309        O314   1.264       .  A
O310        C316   1.263   1_545  A
O310       Cd313   2.428   1_545  S
C311        O319   1.268       .  A
C311        C370   1.482       .  S
C312        O317   1.267       .  A
C312        O315   1.261   1_545  A
Cd313       O320   2.513       .  S
Cd313       O319   2.493       .  S
Cd313       O318   2.458       .  S
Cd313       O314   2.437       .  S
Cd313       O317   2.506   1_565  S
Cd313       O315   2.453       .  S
C316        O320   1.265       .  A
C321        C322   1.351       .  D
C321        H323   1.088       .  S
C322        H324   1.085       .  S
C325        C326   1.353       .  D
C325        H327   1.088       .  S
C326        H328   1.085       .  S
C329        C330   1.345       .  D
C329        H331   1.087       .  S
C330        H332   1.084       .  S
C333        C334   1.351       .  D
C333        H335   1.090       .  S
C334        H336   1.083       .  S
C337        C338   1.350       .  D
C337        H339   1.090       .  S
C338        H340   1.089       .  S
C341        C342   1.360   1_565  D
C341        H343   1.077       .  S
C342        H344   1.084   1_545  S
C345        C346   1.346       .  D
C345        H347   1.076       .  S
C346        H348   1.087       .  S
C349        C350   1.346       .  D
C349        H351   1.088       .  S
C350        H352   1.085       .  S
C353        C354   1.350       .  D
C353        H355   1.086       .  S
C354        H356   1.089       .  S
C357        C358   1.352       .  D
C357        H359   1.087   1_556  S
C358        H360   1.086       .  S
C361        C362   1.355       .  D
C361        H363   1.087       .  S
C362        H364   1.086       .  S
C365        C366   1.354   1_556  D
C365        H367   1.087       .  S
C366        H368   1.086       .  S
C369        C370   1.355       .  D
C369        H371   1.087       .  S
C370        H372   1.083       .  S
C373        C374   1.354       .  D
C373        H375   1.084       .  S
C374        H376   1.083       .  S
C377        C378   1.356       .  D
C377        H379   1.087       .  S
C378        H380   1.081       .  S
C381        C382   1.342       .  D
C381        H383   1.090       .  S
C382        H384   1.085       .  S
C385        C386   1.356       .  D
C385        H387   1.090       .  S
C386        H388   1.082       .  S
C389        C390   1.355   1_655  D
C389        H391   1.086   1_655  S
C390        H392   1.081   1_455  S
C393        C394   1.350       .  D
C393        H395   1.088       .  S
C394        H396   1.084       .  S
C397        C398   1.349       .  D
C397        H399   1.087       .  S
C398        H400   1.085       .  S
C401        C402   1.347       .  D
C401        H403   1.087       .  S
C402        H404   1.080       .  S
C405        C406   1.350       .  D
C405        H407   1.077       .  S
C406        H408   1.087       .  S
C409        C410   1.351       .  D
C409        H411   1.088       .  S
C410        H412   1.086       .  S
C413        C414   1.348       .  D
C413        H415   1.088       .  S
C414        H416   1.086       .  S
