geometry optimzed in LAMMPS
_audit_creation_date              2020-11-30 
_audit_creation_method            'lammps2cif' 
_symmetry_space_group_name_H-M    'P1' 
_symmetry_Int_Tables_number       1 
_symmetry_cell_setting            triclinic 
loop_ 
_symmetry_equiv_pos_as_xyz 
  x,y,z 
_cell_length_a                    61.25077097 
_cell_length_b                    60.968232115518745 
_cell_length_c                    60.49651798999572 
_cell_angle_alpha                 90.12039342480709 
_cell_angle_beta                  90.10027872124039 
_cell_angle_gamma                 89.59507753153784 
loop_ 
_atom_site_label 
_atom_site_type_symbol 
_atom_site_fract_x 
_atom_site_fract_y 
_atom_site_fract_z 
_atom_site_charge 
O1          O  0.28914618  0.74956414  0.47371111    -0.78700
C2          C  0.30330262  0.71077285  0.53303875     0.82300
O3          O  0.26670498  0.67005082  0.46998023    -0.79800
O4          O  0.23461325  0.69457854  0.54195510    -0.81300
O5          O  0.22364730  0.75978452  0.50943389    -0.81100
O6          O  0.25563073  0.76165188  0.46561511    -0.79700
Zn7        Zn  0.28448014  0.71956103  0.48718704     1.55700
O8          O  0.24119080  0.74785315  0.53953250    -0.81100
Cd9        Cd  0.23620965  0.74052555  0.48386495     1.59700
Cd10       Cd  0.24271534  0.68716229  0.48781052     1.59600
O11         O  0.21137140  0.72787345  0.46379307    -0.81100
O12         O  0.25451970  0.71639635  0.49657500    -1.91600
Cd13       Cd  0.25409938  0.71838080  0.52913930     1.59900
O14         O  0.21734586  0.69181912  0.46593439    -0.81100
O15         O  0.28462655  0.71238630  0.54212798    -0.79700
C16         C  0.28394376  0.67721640  0.46052919     0.82800
C17         C  0.27633713  0.76374751  0.46501291     0.82500
O18         O  0.30582154  0.71406252  0.51239650    -0.78700
C19         C  0.22836170  0.76139854  0.52997207     0.83300
O20         O  0.29127345  0.69634803  0.46454965    -0.78800
C21         C  0.20666867  0.70817546  0.45835515     0.83400
C22         C  0.22647006  0.67674997  0.53491317     0.83700
O23         O  0.22879138  0.67044270  0.51486553    -0.81200
O24         O  0.79299093  0.71118663  0.97996706    -0.78700
C25         C  0.76582546  0.75481351  0.03368385     0.82300
O26         O  0.75983454  0.66321459  0.02755383    -0.79800
O27         O  0.70100825  0.71773334  0.03626196    -0.81300
O28         O  0.72663864  0.73957850  0.96104042    -0.81100
O29         O  0.76905936  0.70452038  0.95310215    -0.79700
Zn30       Zn  0.77456614  0.71255259  0.00803603     1.55700
O31         O  0.71218558  0.75202469  0.99251733    -0.81100
Cd32       Cd  0.73969034  0.70959507  0.96961034     1.59700
Cd33       Cd  0.73404210  0.67899238  0.01226202     1.59600
O34         O  0.71795448  0.68592755  0.95980473    -0.81100
O35         O  0.74383348  0.70820373  0.00198776    -1.91600
Cd36       Cd  0.72544175  0.73133238  0.01641898     1.59900
O37         O  0.72086924  0.66077117  0.98641257    -0.81100
O38         O  0.74527361  0.75177058  0.03486345    -0.79700
C39         C  0.77870924  0.66971100  0.03357767     0.82800
C40         C  0.78867994  0.70668477  0.95981982     0.82500
O41         O  0.77838449  0.74169955  0.02313673    -0.78700
C42         C  0.71554058  0.75380057  0.97176356     0.83300
O43         O  0.78591934  0.68853540  0.02818505    -0.78800
C44         C  0.71360757  0.66710421  0.96767271     0.83400
C45         C  0.69730109  0.69797837  0.04218668     0.83700
O46         O  0.70899171  0.68203725  0.03515969    -0.81200
O47         O  0.20544748  0.53695712  0.19501112    -0.78700
C48         C  0.25447447  0.48378572  0.21467217     0.82300
O49         O  0.16431677  0.49033787  0.23201266    -0.79800
O50         O  0.22219987  0.47800414  0.28397570    -0.81300
O51         O  0.24573369  0.55314821  0.26034349    -0.81100
O52         O  0.21015153  0.56393117  0.21935073    -0.79700
Zn53       Zn  0.21151655  0.50906025  0.21228297     1.55700
O54         O  0.25775547  0.52083634  0.27278223    -0.81100
Cd55       Cd  0.21516555  0.54680560  0.24831724     1.59700
Cd56       Cd  0.18252980  0.50668160  0.25560931     1.59600
O57         O  0.19212529  0.55887816  0.27019985    -0.81100
O58         O  0.21136408  0.51488334  0.24363390    -1.91600
Cd59       Cd  0.23531488  0.49860570  0.25927752     1.59900
O60         O  0.16575285  0.53403406  0.26675608    -0.81100
O61         O  0.25346894  0.48146764  0.23566069    -0.79700
C62         C  0.16924997  0.48349895  0.21270619     0.82800
C63         C  0.20540653  0.55729799  0.19997422     0.82500
O64         O  0.24031889  0.49510173  0.20404483    -0.78700
C65         C  0.26003987  0.54152829  0.27027946     0.83300
O66         O  0.18738934  0.48834780  0.20374248    -0.78800
C67         C  0.17260733  0.55257412  0.27349737     0.83400
C68         C  0.20261114  0.47555852  0.29097652     0.83700
O69         O  0.18655101  0.48572708  0.28215139    -0.81200
O70         O  0.52295088  0.20080015  0.20052663    -0.78700
C71         C  0.47805649  0.22131364  0.25520555     0.82300
O72         O  0.47786518  0.23829785  0.16190803    -0.79800
O73         O  0.46880959  0.28918918  0.22376847    -0.81300
O74         O  0.54687356  0.26425119  0.24070467    -0.81100
O75         O  0.55208010  0.22236406  0.20278662    -0.79700
Zn76       Zn  0.49712134  0.21910572  0.20926968     1.55700
O77         O  0.51599743  0.27833244  0.25450963    -0.81100
Cd78       Cd  0.53728690  0.25246492  0.21005878     1.59700
Cd79       Cd  0.49431211  0.26162923  0.18048300     1.59600
O80         O  0.54745125  0.27487260  0.18641049    -0.81100
O81         O  0.50493946  0.24954036  0.20888070    -1.91600
Cd82       Cd  0.49144193  0.26519794  0.23457735     1.59900
O83         O  0.51934430  0.27628746  0.16290106    -0.81100
O84         O  0.47659526  0.24222214  0.25486528    -0.79700
C85         C  0.46902356  0.22050359  0.16825437     0.82800
C86         C  0.54341393  0.20381411  0.19862028     0.82500
O87         O  0.48683151  0.21054757  0.23943648    -0.78700
C88         C  0.53663353  0.27507279  0.25557269     0.83300
O89         O  0.47337843  0.21226635  0.18710831    -0.78800
C90         C  0.53879360  0.28142297  0.16836770     0.83400
C91         C  0.46303777  0.29455820  0.20413317     0.83700
O92         O  0.47149423  0.28547599  0.18717130    -0.81200
O93         O  0.29236525  0.21519942  0.47537978    -0.78700
C94         C  0.27476037  0.26790699  0.52512249     0.82300
O95         O  0.26423664  0.17580509  0.52448465    -0.79800
O96         O  0.21023547  0.22995058  0.54230064    -0.81300
O97         O  0.22487469  0.25651569  0.46418812    -0.81100
O98         O  0.26783492  0.22079960  0.44898090    -0.79700
Zn99       Zn  0.27646237  0.22405859  0.50295111     1.55700
O100        O  0.21309702  0.26430915  0.49834569    -0.81100
Cd101      Cd  0.23973614  0.22588567  0.46845870     1.59700
Cd102      Cd  0.23719990  0.19157453  0.51018803     1.59600
O103        O  0.21859342  0.20161949  0.45855707    -0.81100
O104        O  0.24578697  0.22128722  0.50028816    -1.91600
Cd105      Cd  0.23131805  0.24412179  0.51884084     1.59900
O106        O  0.22345573  0.17484167  0.48340206    -0.81100
O107        O  0.25525241  0.26492113  0.53202770    -0.79700
C108        C  0.28212341  0.18441396  0.53100329     0.82800
C109        C  0.28702648  0.21503780  0.45507705     0.82500
O110        O  0.28406684  0.25438792  0.51205671    -0.78700
C111        C  0.21387553  0.26841703  0.47768058     0.83300
O112        O  0.28735758  0.20378459  0.52558405    -0.78800
C113        C  0.21563962  0.18197185  0.46510487     0.83400
C114        C  0.20485799  0.20996631  0.54572570     0.83700
O115        O  0.21351671  0.19421078  0.53478460    -0.81200
O116        O  0.73798925  0.52122027  0.20942323    -0.78700
C117        C  0.70420275  0.45793595  0.20019041     0.82300
O118        O  0.65694627  0.52327356  0.22312824    -0.79800
O119        O  0.68557905  0.45909385  0.27037791    -0.81300
O120        O  0.74227086  0.50191488  0.27929135    -0.81100
O121        O  0.74152687  0.53918425  0.24138173    -0.79700
Zn122      Zn  0.70842054  0.50646142  0.21258517     1.55700
O123        O  0.73915057  0.46849004  0.26445684    -0.81100
Cd124      Cd  0.72082075  0.52102596  0.26144055     1.59700
Cd125      Cd  0.67116328  0.50744531  0.25008324     1.59600
O126        O  0.70220384  0.53976295  0.28354198    -0.81100
O127        O  0.70228988  0.50165197  0.24309895    -1.91600
Cd128      Cd  0.70903408  0.47056624  0.24908066     1.59900
O129        O  0.66828235  0.52837686  0.27715530    -0.81100
O130        O  0.70680796  0.45172759  0.22018075    -0.79700
C131        C  0.66588057  0.53100592  0.20572376     0.82800
C132        C  0.74805170  0.53494172  0.22176020     0.82500
O133        O  0.70508661  0.47818527  0.19497447    -0.78700
C134        C  0.74897997  0.48221549  0.27691145     0.83300
O135        O  0.68562333  0.52663159  0.20070267    -0.78800
C136        C  0.68182798  0.53986660  0.28816523     0.83400
C137        C  0.66507878  0.46284782  0.27108606     0.83700
O138        O  0.65622227  0.47872129  0.26049184    -0.81200
O139        O  0.01756376  0.30679930  0.26239629    -0.78700
C140        C  0.95664769  0.30268482  0.29600352     0.82300
O141        O  0.03024272  0.27353320  0.33564499    -0.79800
O142        O  0.96181594  0.23400345  0.30848392    -0.81300
O143        O  0.00201758  0.23628638  0.24206517    -0.81100
O144        O  0.03497027  0.27831678  0.24715498    -0.79700
Zn145      Zn  0.00553894  0.29502672  0.29084306     1.55700
O146        O  0.96779564  0.24197920  0.25351280    -0.81100
Cd147      Cd  0.02162956  0.25219060  0.26480961     1.59700
Cd148      Cd  0.01234934  0.25112928  0.31757529     1.59600
O149        O  0.04450167  0.22921257  0.27692533    -0.81100
O150        O  0.00285567  0.26382364  0.28910455    -1.91600
Cd151      Cd  0.97174486  0.25604562  0.28446306     1.59900
O152        O  0.03279174  0.22491244  0.31156217    -0.81100
O153        O  0.95184471  0.28353653  0.28901580    -0.79700
C154        C  0.03497274  0.29337485  0.33125474     0.82800
C155        C  0.02985320  0.29870301  0.24741445     0.82500
O156        O  0.97641537  0.30883046  0.29794393    -0.78700
C157        C  0.98143787  0.23447958  0.23938822     0.83300
O158        O  0.02678070  0.30319468  0.31461248    -0.78800
C159        C  0.04507769  0.21923127  0.29552538     0.83400
C160        C  0.96828216  0.23148679  0.32838831     0.83700
O161        O  0.98614913  0.23958449  0.33536687    -0.81200
O162        O  0.80641621  0.02687258  0.30353545    -0.78700
C163        C  0.75598509  0.98084954  0.28062906     0.82300
O164        O  0.85043808  0.98235390  0.27000363    -0.79800
O165        O  0.79392650  0.96880577  0.21437509    -0.81300
O166        O  0.77116576  0.04639152  0.23674011    -0.81100
O167        O  0.80628038  0.05534388  0.28072698    -0.79700
Zn168      Zn  0.80133707  0.00026540  0.28503302     1.55700
O169        O  0.76089955  0.01471133  0.22134520    -0.81100
Cd170      Cd  0.80107055  0.03896959  0.25073062     1.59700
Cd171      Cd  0.83332618  0.99766874  0.24446247     1.59600
O172        O  0.82447951  0.04961989  0.22893548    -0.81100
O173        O  0.80375087  0.00674088  0.25430184    -1.91600
Cd174      Cd  0.78000123  0.99125250  0.23742743     1.59900
O175        O  0.85042910  0.02377447  0.23056364    -0.81100
O176        O  0.75741230  0.97758137  0.25976178    -0.79700
C177        C  0.84332431  0.97449277  0.28815798     0.82800
C178        C  0.80829147  0.04733886  0.30011776     0.82500
O179        O  0.77148766  0.98962199  0.29143769    -0.78700
C180        C  0.75828256  0.03530750  0.22449184     0.83300
O181        O  0.82395437  0.97844047  0.29477133    -0.78800
C182        C  0.84341650  0.04242278  0.22395314     0.83400
C183        C  0.81404695  0.96483075  0.20987195     0.83700
O184        O  0.82950828  0.97461054  0.21994116    -0.81200
O185        O  0.70788329  0.76840911  0.48994401    -0.78700
C186        C  0.70474789  0.80270635  0.55001785     0.82300
O187        O  0.73108309  0.84634937  0.47957136    -0.79800
O188        O  0.76984077  0.82074034  0.54979398    -0.81300
O189        O  0.78071917  0.75797971  0.50732338    -0.81100
O190        O  0.73825409  0.75561383  0.47425278    -0.79700
Zn191      Zn  0.71593811  0.79803813  0.50150146     1.55700
O192        O  0.77013368  0.76586128  0.54178643    -0.81100
Cd193      Cd  0.76128681  0.77726265  0.48720089     1.59700
Cd194      Cd  0.75650383  0.82991656  0.49643958     1.59600
O195        O  0.78134310  0.79135576  0.46319842    -0.81100
O196        O  0.74664942  0.80014641  0.50563407    -1.91600
Cd197      Cd  0.75220032  0.79477553  0.53762824     1.59900
O198        O  0.78166199  0.82644765  0.47385523    -0.81100
O199        O  0.72354320  0.79608823  0.55636404    -0.79700
C200        C  0.71260981  0.83882441  0.47329342     0.82800
C201        C  0.71793064  0.75388681  0.47861261     0.82500
O202        O  0.70014107  0.80455987  0.52959831    -0.78700
C203        C  0.78119320  0.75430025  0.52806796     0.83300
O204        O  0.70586889  0.82027293  0.47986423    -0.78800
C205        C  0.78874094  0.81085554  0.46165343     0.83400
C206        C  0.77432499  0.83999718  0.54308830     0.83700
O207        O  0.76942756  0.84675119  0.52368214    -0.81200
C208        C  0.91793276  0.84827115  0.36153320     0.86300
C209        C  0.93390080  0.85864380  0.37815922    -0.54000
C210        C  0.92440957  0.87370507  0.39203717     0.09200
C211        C  0.89974286  0.87692031  0.38807371     0.20200
C212        C  0.89945370  0.83880318  0.37593041    -0.54700
C213        C  0.88985300  0.85372083  0.38990977     0.09300
C214        C  0.90696300  0.86782128  0.34981202    -0.54200
C215        C  0.89783326  0.88294838  0.36355613     0.09900
H216        H  0.95127273  0.85497034  0.37837243     0.14400
H217        H  0.89215793  0.88943232  0.39900465     0.00100
H218        H  0.89420321  0.82192611  0.37517990     0.14700
H219        H  0.90614650  0.86945380  0.33195026     0.14500
C220        C  0.85667533  0.15473340  0.42124107     0.86300
C221        C  0.84397328  0.14189290  0.40352851    -0.54000
C222        C  0.85694363  0.12944641  0.39005462     0.09200
C223        C  0.88144317  0.13059379  0.39567048     0.20200
C224        C  0.86965551  0.13699438  0.43363730    -0.54700
C225        C  0.88294423  0.12457140  0.42045180     0.09300
C226        C  0.87389692  0.16762054  0.40843498    -0.54200
C227        C  0.88679218  0.15518265  0.39498392     0.09900
H228        H  0.82638583  0.14299439  0.40142662     0.14400
H229        H  0.89197300  0.12046523  0.38469461     0.00100
H230        H  0.86829728  0.13383753  0.45116415     0.14700
H231        H  0.87526743  0.18535856  0.40946065     0.14500
C232        C  0.85352481  0.93260070  0.65515247     0.86300
C233        C  0.86520742  0.91384821  0.66739291    -0.54000
C234        C  0.87757178  0.90018093  0.65430107     0.09200
C235        C  0.87651203  0.90670993  0.62951171     0.20200
C236        C  0.87206426  0.94439132  0.64261520    -0.54700
C237        C  0.88420886  0.93090160  0.62898202     0.09300
C238        C  0.84036977  0.92141756  0.63700038    -0.54200
C239        C  0.85194970  0.90766661  0.62370385     0.09900
H240        H  0.86337401  0.91171013  0.68506849     0.14400
H241        H  0.88566063  0.89567828  0.61831193     0.00100
H242        H  0.87568136  0.96161053  0.64464144     0.14700
H243        H  0.82297721  0.92437211  0.63484097     0.14500
C244        C  0.14704636  0.09265945  0.34159283     0.86300
C245        C  0.13113178  0.08033017  0.35699604    -0.54000
C246        C  0.11930068  0.09372541  0.37066220     0.09200
C247        C  0.12407508  0.11818917  0.36755859     0.20200
C248        C  0.13244948  0.10927954  0.32918832    -0.54700
C249        C  0.12020146  0.12247107  0.34276462     0.09300
C250        C  0.16076282  0.10661890  0.35760152    -0.54200
C251        C  0.14878707  0.12004640  0.37098562     0.09900
H252        H  0.12981632  0.06270788  0.35826304     0.14400
H253        H  0.11450284  0.12907682  0.37871366     0.00100
H254        H  0.13134708  0.10994222  0.31128596     0.14700
H255        H  0.17848204  0.10593017  0.35829789     0.14500
C256        C  0.08644798  0.16244262  0.65595709     0.86300
C257        C  0.10498467  0.17321204  0.64269908    -0.54000
C258        C  0.11645224  0.15878808  0.62943010     0.09200
C259        C  0.10812607  0.13474117  0.63122652     0.20200
C260        C  0.07253258  0.15107116  0.63831164    -0.54700
C261        C  0.08353985  0.13599185  0.62589788     0.09300
C262        C  0.09762540  0.14385913  0.66871312    -0.54200
C263        C  0.10862637  0.12913843  0.65599211     0.09900
H264        H  0.10868101  0.19052027  0.64360452     0.14400
H265        H  0.11686257  0.12244282  0.62098534     0.00100
H266        H  0.05505203  0.15379151  0.63674627     0.14700
H267        H  0.09614897  0.14202351  0.68652135     0.14500
C268        C  0.16284370  0.86161329  0.58478247     0.86300
C269        C  0.14850165  0.87879172  0.57271076    -0.54000
C270        C  0.13520304  0.89068838  0.58637396     0.09200
C271        C  0.13760986  0.88469847  0.61090555     0.20200
C272        C  0.17533725  0.87483851  0.60234807    -0.54700
C273        C  0.16216683  0.88710416  0.61587442     0.09300
C274        C  0.14635325  0.84801195  0.59788978    -0.54200
C275        C  0.13323499  0.85994416  0.61159089     0.09900
H276        H  0.14748405  0.88076485  0.55498864     0.14400
H277        H  0.12686404  0.89448356  0.62200058     0.00100
H278        H  0.19303432  0.87512428  0.60339813     0.14700
H279        H  0.14512985  0.83029950  0.59637117     0.14500
O280        O  0.02236652  0.02320042  0.45126020    -0.78700
C281        C  0.98304752  0.96503657  0.46624226     0.82300
O282        O  0.97259759  0.04849555  0.50653284    -0.79800
O283        O  0.98213573  0.97407013  0.53719805    -0.81300
O284        O  0.05908089  0.98824086  0.51200135    -0.81100
O285        O  0.05140912  0.02754968  0.47283242    -0.79700
Zn286      Zn  0.99880799  0.01221794  0.47223017     1.55700
O287        O  0.03435874  0.96318121  0.52157681    -0.81100
Cd288      Cd  0.04064667  0.01488429  0.50243058     1.59700
Cd289      Cd  0.99341252  0.02737706  0.52373490     1.59600
O290        O  0.04713502  0.03861105  0.52530805    -0.81100
O291        O  0.00899878  0.00760014  0.50217366    -1.91600
Cd292      Cd  0.00447416  0.97617167  0.51101620     1.59900
O293        O  0.01559255  0.04610232  0.54203696    -0.81100
O294        O  0.99084367  0.95819394  0.48463195    -0.79700
C295        C  0.96712697  0.04849722  0.48615655     0.82800
C296        C  0.04197675  0.02947847  0.45418208     0.82500
O297        O  0.98512403  0.98492630  0.46022894    -0.78700
C298        C  0.05409586  0.96982825  0.52047551     0.83300
O299        O  0.97563906  0.03520662  0.47236590    -0.78800
C300        C  0.03612304  0.04894773  0.53979559     0.83400
C301        C  0.97145765  0.98842224  0.54829331     0.83700
O302        O  0.97410367  0.00894519  0.54505767    -0.81200
O303        O  0.71155346  0.30083668  0.47303428    -0.78700
C304        C  0.73582282  0.25386244  0.52761134     0.82300
O305        O  0.74061779  0.34614426  0.52434622    -0.79800
O306        O  0.79958650  0.29335455  0.53528240    -0.81300
O307        O  0.77804439  0.27011295  0.45819888    -0.81100
O308        O  0.73670558  0.30457651  0.44694512    -0.79700
Zn309      Zn  0.72886861  0.29610475  0.50142390     1.55700
O310        O  0.79257199  0.25919702  0.49021442    -0.81100
Cd311      Cd  0.76454661  0.29969022  0.46583170     1.59700
Cd312      Cd  0.76796052  0.33198050  0.50816270     1.59600
O313        O  0.78685723  0.32265317  0.45741040    -0.81100
O314        O  0.75941155  0.30187016  0.49788635    -1.91600
Cd315      Cd  0.77695638  0.27894801  0.51356407     1.59900
O316        O  0.78230528  0.34981482  0.48186802    -0.81100
O317        O  0.75616747  0.25764092  0.53026021    -0.79700
C318        C  0.72229270  0.33724244  0.52916487     0.82800
C319        C  0.71682802  0.30460236  0.45302302     0.82500
O320        O  0.72385849  0.26628906  0.51555802    -0.78700
C321        C  0.78975018  0.25687827  0.46939852     0.83300
O322        O  0.71718789  0.31837616  0.52192251    -0.78800
C323        C  0.79104852  0.34187074  0.46431882     0.83400
C324        C  0.80385375  0.31334419  0.54007237     0.83700
O325        O  0.79322755  0.32924823  0.53134821    -0.81200
O326        O  0.02528743  0.71144125  0.69713843    -0.78700
C327        C  0.97139064  0.72978520  0.74552326     0.82300
O328        O  0.98015195  0.74207771  0.65328859    -0.79800
O329        O  0.95911197  0.79450237  0.70543314    -0.81300
O330        O  0.03334129  0.77836085  0.74132516    -0.81100
O331        O  0.05107261  0.73490970  0.70721863    -0.79700
Zn332      Zn  0.99702724  0.72748077  0.70320391     1.55700
O333        O  0.99951621  0.79181926  0.74542488    -0.81100
Cd334      Cd  0.03195538  0.76360328  0.71017331     1.59700
Cd335      Cd  0.99503931  0.76721480  0.67111029     1.59600
O336        O  0.04466348  0.78474216  0.68698750    -0.81100
O337        O  0.00105937  0.75827580  0.70196747    -1.91600
Cd338      Cd  0.98106289  0.77373837  0.72289635     1.59900
O339        O  0.02343242  0.77957636  0.65726176    -0.81100
O340        O  0.96609578  0.74994164  0.74262379    -0.79700
C341        C  0.97150701  0.72463557  0.66085481     0.82800
C342        C  0.04535105  0.71613760  0.69985262     0.82500
O343        O  0.98454794  0.71985100  0.73253938    -0.78700
C344        C  0.01935622  0.79006606  0.75184398     0.83300
O345        O  0.97566251  0.71795980  0.68032094    -0.78800
C346        C  0.04051619  0.78739910  0.66647488     0.83400
C347        C  0.95831802  0.79979396  0.68492450     0.83700
O348        O  0.97151434  0.79155897  0.67084607    -0.81200
C349        C  0.14737819  0.59100181  0.65105002     0.86300
C350        C  0.13352492  0.60919922  0.66213067    -0.54000
C351        C  0.12039371  0.62061729  0.64769574     0.09200
C352        C  0.12262012  0.61277657  0.62337942     0.20200
C353        C  0.13061193  0.57680069  0.63889223    -0.54700
C354        C  0.11751579  0.58785761  0.62422463     0.09300
C355        C  0.15981807  0.60263628  0.63279294    -0.54200
C356        C  0.14731666  0.61429136  0.61831134     0.09900
H357        H  0.13315920  0.61220934  0.67977967     0.14400
H358        H  0.11242763  0.62240549  0.61174175     0.00100
H359        H  0.12989116  0.55922499  0.64140589     0.14700
H360        H  0.17745361  0.60127453  0.63136601     0.14500
C361        C  0.15759451  0.36856655  0.41337884     0.86300
C362        C  0.16820060  0.38558834  0.39804309    -0.54000
C363        C  0.15371314  0.39735684  0.38546687     0.09200
C364        C  0.12967597  0.39111077  0.38995127     0.20200
C365        C  0.14133647  0.38222776  0.42737816    -0.54700
C366        C  0.12636874  0.39389747  0.41512612     0.09300
C367        C  0.14316904  0.35462248  0.39827980    -0.54200
C368        C  0.12825511  0.36621443  0.38627902     0.09900
H369        H  0.18562850  0.38851603  0.39770016     0.14400
H370        H  0.11791952  0.40038226  0.37970987     0.00100
H371        H  0.14124523  0.38202940  0.44528672     0.14700
H372        H  0.14430254  0.33683628  0.39777351     0.14500
C373        C  0.84211402  0.65397290  0.58850707     0.86300
C374        C  0.85421888  0.63843478  0.57238940    -0.54000
C375        C  0.86899361  0.62486099  0.58254878     0.09200
C376        C  0.87040091  0.62798347  0.60774623     0.20200
C377        C  0.83201941  0.63843195  0.60567517    -0.54700
C378        C  0.84672292  0.62487454  0.61599083     0.09300
C379        C  0.86020492  0.66593805  0.60087793    -0.54200
C380        C  0.87526254  0.65261148  0.61067630     0.09900
H381        H  0.85131753  0.63784972  0.55470273     0.14400
H382        H  0.88272477  0.61715408  0.61571304     0.00100
H383        H  0.81459934  0.63769063  0.60877895     0.14700
H384        H  0.86111549  0.68372371  0.60151160     0.14500
C385        C  0.85182337  0.42552146  0.33394845     0.86300
C386        C  0.86921941  0.44099895  0.34370386    -0.54000
C387        C  0.88117672  0.43174040  0.36043006     0.09200
C388        C  0.87497911  0.40789059  0.36560821     0.20200
C389        C  0.86501527  0.40520620  0.32669866    -0.54700
C390        C  0.87720656  0.39593556  0.34317620     0.09300
C391        C  0.83843213  0.41797037  0.35379399    -0.54200
C392        C  0.85031583  0.40895685  0.37048396     0.09900
H393        H  0.87147379  0.45782787  0.33838657     0.14400
H394        H  0.88479646  0.40050879  0.37917023     0.00100
H395        H  0.86628151  0.39970525  0.30968893     0.14700
H396        H  0.82076933  0.41968610  0.35450264     0.14500
C397        C  0.92792978  0.35415563  0.64749189     0.86300
C398        C  0.91114166  0.34428430  0.63132677    -0.54000
C399        C  0.90001642  0.35943969  0.61866429     0.09200
C400        C  0.90717648  0.38329923  0.62369334     0.20200
C401        C  0.94283330  0.36818247  0.63278845    -0.54700
C402        C  0.93215322  0.38354261  0.62047738     0.09300
C403        C  0.91487428  0.37109329  0.66103626    -0.54200
C404        C  0.90385363  0.38630685  0.64872684     0.09900
H405        H  0.90866054  0.32674090  0.63010951     0.14400
H406        H  0.89869272  0.39619822  0.61416540     0.00100
H407        H  0.96033910  0.36657107  0.63186231     0.14700
H408        H  0.91410830  0.37064038  0.67895439     0.14500
C409        C  0.08340797  0.66887864  0.35045515     0.81500
C410        C  0.06841572  0.65678208  0.36654623    -0.54000
C411        C  0.07875775  0.64108633  0.37873408     0.09200
C412        C  0.10345029  0.63930424  0.37429026     0.20200
C413        C  0.10158826  0.67821657  0.36548099    -0.54700
C414        C  0.11226239  0.66277222  0.37817253     0.09300
C415        C  0.09475921  0.65089030  0.33694745    -0.54200
C416        C  0.10549021  0.63561183  0.34925320     0.09900
H417        H  0.05097998  0.65992050  0.36779171     0.14400
H418        H  0.11119566  0.62610570  0.38413372     0.00100
H419        H  0.10563704  0.69540240  0.36600608     0.14700
H420        H  0.09523157  0.65095638  0.31898668     0.14500
O421        O  0.01341371  0.55677634  0.46804273    -0.78700
C422        C  0.95521772  0.55402080  0.51313361     0.82300
O423        O  0.03234780  0.51772771  0.53567666    -0.79800
O424        O  0.96245855  0.48212004  0.52046686    -0.81300
O425        O  0.97595620  0.49159833  0.44522559    -0.81100
O426        O  0.01747387  0.52846024  0.44501932    -0.79700
Zn427      Zn  0.00130542  0.54405194  0.49625073     1.55700
O428        O  0.94972527  0.49613476  0.47028035    -0.81100
Cd429      Cd  0.00343190  0.50294263  0.46227933     1.59700
Cd430      Cd  0.01523698  0.49592100  0.51509717     1.59600
O431        O  0.02647497  0.47810980  0.46308980    -0.81100
O432        O  0.99671734  0.51276336  0.49313156    -1.91600
Cd433      Cd  0.96536949  0.50705638  0.49839505     1.59900
O434        O  0.03766753  0.47595103  0.49815598    -0.81100
O435        O  0.94941336  0.53405146  0.51158201    -0.79700
C436        C  0.03420802  0.53856703  0.53432569     0.82800
C437        C  0.01992264  0.54869930  0.44970629     0.82500
O438        O  0.97395326  0.56023872  0.50651601    -0.78700
C439        C  0.95604325  0.48998455  0.45116859     0.83300
O440        O  0.02372008  0.54955929  0.51985426    -0.78800
C441        C  0.03908943  0.47014520  0.47787666     0.83400
C442        C  0.97514475  0.47134763  0.53314504     0.83700
O443        O  0.99565206  0.47502542  0.53394388    -0.81200
C444        C  0.65097716  0.35722006  0.07438975     0.86300
C445        C  0.63627751  0.37417289  0.06227619    -0.54000
C446        C  0.62309587  0.38657363  0.07591803     0.09200
C447        C  0.62652247  0.38104963  0.10066978     0.20200
C448        C  0.66394373  0.37105797  0.09122460    -0.54700
C449        C  0.65119623  0.38370987  0.10482785     0.09300
C450        C  0.63485234  0.34402263  0.08836945    -0.54200
C451        C  0.62231339  0.35630843  0.10224458     0.09900
H452        H  0.63622662  0.37632463  0.04459365     0.14400
H453        H  0.61628357  0.39047305  0.11243788     0.00100
H454        H  0.68165943  0.37131677  0.09182766     0.14700
H455        H  0.63372947  0.32625196  0.08766145     0.14500
C456        C  0.57130112  0.65819348  0.14575754     0.86300
C457        C  0.58980571  0.66725536  0.13134211    -0.54000
C458        C  0.60183669  0.65156847  0.12037450     0.09200
C459        C  0.59373148  0.62792637  0.12505960     0.20200
C460        C  0.55761494  0.64419065  0.12955880    -0.54700
C461        C  0.56930387  0.62807119  0.11910376     0.09300
C462        C  0.58249139  0.64152102  0.16098969    -0.54200
C463        C  0.59399294  0.62546773  0.15036544     0.09900
H464        H  0.59322509  0.68464278  0.13049391     0.14400
H465        H  0.60265918  0.61473741  0.11621726     0.00100
H466        H  0.54019865  0.64605942  0.12697643     0.14700
H467        H  0.58107739  0.64234343  0.17886900     0.14500
C468        C  0.40948587  0.34425527  0.84521684     0.86300
C469        C  0.42338998  0.36007909  0.85956457    -0.54000
C470        C  0.41121114  0.37338668  0.87335371     0.09200
C471        C  0.38635782  0.36915091  0.87154606     0.20200
C472        C  0.39590936  0.33150046  0.86214404    -0.54700
C473        C  0.38357378  0.34437382  0.87579391     0.09300
C474        C  0.39322347  0.35943845  0.83337196    -0.54200
C475        C  0.38127395  0.37255415  0.84696490     0.09900
H476        H  0.44097874  0.36123654  0.85857216     0.14400
H477        H  0.37612749  0.37942304  0.88257702     0.00100
H478        H  0.39546413  0.31370535  0.86262629     0.14700
H479        H  0.39199500  0.36045301  0.81547012     0.14500
C480        C  0.34146605  0.66203769  0.91839705     0.86300
C481        C  0.33183265  0.64581233  0.90137801    -0.54000
C482        C  0.34703470  0.63265522  0.89119659     0.09200
C483        C  0.37048662  0.63690778  0.89924504     0.20200
C484        C  0.35427478  0.64702809  0.93458713    -0.54700
C485        C  0.36958070  0.63409730  0.92436860     0.09300
C486        C  0.35915521  0.67454687  0.90572374    -0.54200
C487        C  0.37432526  0.66144559  0.89575726     0.09900
H488        H  0.31445895  0.64451021  0.89816733     0.14400
H489        H  0.38322947  0.62654464  0.89134776     0.00100
H490        H  0.35192200  0.64675234  0.95234340     0.14700
H491        H  0.35955630  0.69232889  0.90470663     0.14500
C492        C  0.64566921  0.58538644  0.84461339     0.86300
C493        C  0.62925545  0.56952591  0.85550744    -0.54000
C494        C  0.61452054  0.57962097  0.86930778     0.09200
C495        C  0.61744480  0.60472141  0.87067568     0.20200
C496        C  0.63123138  0.60249374  0.83296329    -0.54700
C497        C  0.61645905  0.61262358  0.84647505     0.09300
C498        C  0.65593068  0.59757404  0.86411070    -0.54200
C499        C  0.64136616  0.60773596  0.87770246     0.09900
H500        H  0.62928454  0.55193894  0.85324994     0.14400
H501        H  0.60562819  0.61321513  0.88170574     0.00100
H502        H  0.63239812  0.60600689  0.81540868     0.14700
H503        H  0.67346756  0.59840658  0.86674785     0.14500
C504        C  0.35368033  0.41540340  0.16098574     0.86300
C505        C  0.36798282  0.39709591  0.17127145    -0.54000
C506        C  0.38122869  0.38634619  0.15646901     0.09200
C507        C  0.37878450  0.39509894  0.13252144     0.20200
C508        C  0.37000988  0.43044661  0.14926888    -0.54700
C509        C  0.38298072  0.41998103  0.13417208     0.09300
C510        C  0.34132190  0.40379436  0.14225420    -0.54200
C511        C  0.35431144  0.39326253  0.12739514     0.09900
H512        H  0.36722119  0.39224549  0.18840625     0.14400
H513        H  0.38930466  0.38692425  0.12004710     0.00100
H514        H  0.37052090  0.44806000  0.15194072     0.14700
H515        H  0.32361886  0.40370988  0.14097547     0.14500
O516        O  0.46454728  0.54698194  0.97859882    -0.78700
C517        C  0.50790606  0.54580679  0.03664125     0.82300
O518        O  0.52874535  0.50653542  0.95540735    -0.79800
O519        O  0.52286926  0.47452824  0.02963707    -0.81300
O520        O  0.44577370  0.47951205  0.01775303    -0.81100
O521        O  0.44007208  0.52019946  0.98008432    -0.79700
Zn522      Zn  0.49305096  0.53393164  0.98962998     1.55700
O523        O  0.47057303  0.48380559  0.04444336    -0.81100
Cd524      Cd  0.45922787  0.49340478  0.98959448     1.59700
Cd525      Cd  0.51012373  0.48535971  0.97534976     1.59600
O526        O  0.45797069  0.46954861  0.96485113    -0.81100
O527        O  0.49006845  0.50268661  0.99549881    -1.91600
Cd528      Cd  0.49733550  0.49717558  0.02761582     1.59900
O529        O  0.49266005  0.46313519  0.95562611    -0.81100
O530        O  0.50747105  0.52599759  0.04346077    -0.79700
C531        C  0.52965960  0.52749210  0.95528884     0.82800
C532        C  0.44504804  0.54012231  0.97616567     0.82500
O533        O  0.50205007  0.55073356  0.01703263    -0.78700
C534        C  0.45193652  0.47712223  0.03778518     0.83300
O535        O  0.51704870  0.53915035  0.96735511    -0.78800
C536        C  0.47229773  0.45910243  0.95359087     0.83400
C537        C  0.53428300  0.46404231  0.01540093     0.83700
O538        O  0.53137865  0.46657040  0.99462871    -0.81200
O539        O  0.29350819  0.49028158  0.70216801    -0.78700
C540        C  0.24595540  0.54390951  0.72503099     0.82300
O541        O  0.33849010  0.53251331  0.73705430    -0.79800
O542        O  0.28415006  0.55157483  0.78846198    -0.81300
O543        O  0.25349256  0.47678646  0.76907224    -0.81100
O544        O  0.28779799  0.46312479  0.72598079    -0.79700
Zn545      Zn  0.28852780  0.51808043  0.71986461     1.55700
O546        O  0.24811340  0.50966010  0.78446476    -0.81100
Cd547      Cd  0.28414591  0.48032755  0.75542417     1.59700
Cd548      Cd  0.32050300  0.51803352  0.76209310     1.59600
O549        O  0.30661645  0.46682221  0.77698865    -0.81100
O550        O  0.29071655  0.51172891  0.75087751    -1.91600
Cd551      Cd  0.26913151  0.52966317  0.76731531     1.59900
O552        O  0.33489836  0.48964722  0.77483303    -0.81100
O553        O  0.24895324  0.54620391  0.74574095    -0.79700
C554        C  0.33218770  0.54114492  0.71887380     0.82800
C555        C  0.29281862  0.46988512  0.70671429     0.82500
O556        O  0.25904920  0.53252978  0.71310012    -0.78700
C557        C  0.24253105  0.48975938  0.78145637     0.83300
O558        O  0.31298179  0.53817037  0.71128977    -0.78800
C559        C  0.32639917  0.47165531  0.78124347     0.83400
C560        C  0.30387228  0.55345338  0.79495112     0.83700
O561        O  0.31914331  0.54127069  0.78732012    -0.81200
C562        C  0.66270668  0.65104764  0.41817841     0.86300
C563        C  0.64914751  0.63647456  0.43331499    -0.54000
C564        C  0.63397935  0.62381299  0.42268366     0.09200
C565        C  0.63417553  0.62686885  0.39716625     0.20200
C566        C  0.67287773  0.63494019  0.40155498    -0.54700
C567        C  0.65820708  0.62249731  0.38984056     0.09300
C568        C  0.64599187  0.66409587  0.40455739    -0.54200
C569        C  0.63084295  0.65172830  0.39388130     0.09900
H570        H  0.65159329  0.63636705  0.45107609     0.14400
H571        H  0.62174231  0.61723005  0.38817046     0.00100
H572        H  0.69022732  0.63343182  0.39925507     0.14700
H573        H  0.64571898  0.68191463  0.40406375     0.14500
C574        C  0.64705624  0.42187656  0.65628700     0.86300
C575        C  0.63350702  0.43617853  0.64015633    -0.54000
C576        C  0.62414884  0.42467313  0.62305955     0.09200
C577        C  0.62943564  0.39984075  0.62383875     0.20200
C578        C  0.63098866  0.40423334  0.66393918    -0.54700
C579        C  0.62178716  0.39238879  0.64709249     0.09300
C580        C  0.66333518  0.40946075  0.64175239    -0.54200
C581        C  0.65461786  0.39873544  0.62419489     0.09900
H582        H  0.63197510  0.45383666  0.64193250     0.14400
H583        H  0.62216951  0.39024204  0.61019841     0.00100
H584        H  0.62637278  0.40189037  0.68100647     0.14700
H585        H  0.68079204  0.40991927  0.64489879     0.14500
C586        C  0.41780052  0.66181958  0.64516851     0.86300
C587        C  0.43191817  0.64777768  0.62943088    -0.54000
C588        C  0.42012546  0.63377731  0.61627992     0.09200
C589        C  0.39533211  0.63473761  0.62071491     0.20200
C590        C  0.40084517  0.67310779  0.62999891    -0.54700
C591        C  0.38916536  0.65890447  0.61735041     0.09300
C592        C  0.40425498  0.64517366  0.65827450    -0.54200
C593        C  0.39289376  0.63064998  0.64565160     0.09900
H594        H  0.44951170  0.64944446  0.62831679     0.14400
H595        H  0.38562041  0.62332381  0.61044389     0.00100
H596        H  0.39722104  0.69050673  0.62972741     0.14700
H597        H  0.40362870  0.64507408  0.67621001     0.14500
C598        C  0.36011351  0.59150592  0.33860681     0.86300
C599        C  0.37281081  0.60901458  0.32574174    -0.54000
C600        C  0.38470283  0.62294610  0.33874335     0.09200
C601        C  0.38298464  0.61775800  0.36373014     0.20200
C602        C  0.37767181  0.57975482  0.35258531    -0.54700
C603        C  0.38954534  0.59338707  0.36577533     0.09300
C604        C  0.34652118  0.60450068  0.35540895    -0.54200
C605        C  0.35822355  0.61817817  0.36873412     0.09900
H606        H  0.37251103  0.61010963  0.30783225     0.14400
H607        H  0.39264167  0.62868630  0.37462837     0.00100
H608        H  0.38090036  0.56228032  0.35236640     0.14700
H609        H  0.32888570  0.60305228  0.35638868     0.14500
C610        C  0.58606945  0.34489441  0.35554877     0.86300
C611        C  0.60430826  0.33471451  0.36983534    -0.54000
C612        C  0.61656828  0.34977009  0.38106913     0.09200
C613        C  0.60961872  0.37374125  0.37679324     0.20200
C614        C  0.57290258  0.35966125  0.37165155    -0.54700
C615        C  0.58516474  0.37494302  0.38249072     0.09300
C616        C  0.59780746  0.36137217  0.34057175    -0.54200
C617        C  0.61024662  0.37626675  0.35159120     0.09900
H618        H  0.60704932  0.31714931  0.37117291     0.14400
H619        H  0.61966356  0.38601218  0.38572669     0.00100
H620        H  0.55533286  0.35965290  0.37331241     0.14700
H621        H  0.59658489  0.36109390  0.32265152     0.14500
C622        C  0.33929831  0.36554934  0.58482701     0.86300
C623        C  0.32992781  0.38149601  0.60210367    -0.54000
C624        C  0.34501278  0.39466555  0.61193267     0.09200
C625        C  0.36842559  0.39102963  0.60309453     0.20200
C626        C  0.35101409  0.38070281  0.56829940    -0.54700
C627        C  0.36655003  0.39384362  0.57776341     0.09300
C628        C  0.35773700  0.35320239  0.59668735    -0.54200
C629        C  0.37295595  0.36639467  0.60619259     0.09900
H630        H  0.31264773  0.38302747  0.60571875     0.14400
H631        H  0.38084480  0.40166111  0.61101769     0.00100
H632        H  0.34780645  0.38062752  0.55065278     0.14700
H633        H  0.35864068  0.33541493  0.59756413     0.14500
O634        O  0.48020448  0.46097481  0.51952277    -0.78700
C635        C  0.51962206  0.45975361  0.45906412     0.82300
O636        O  0.53980126  0.50768798  0.53717816    -0.79800
O637        O  0.53296454  0.52854115  0.45951317    -0.81300
O638        O  0.45454966  0.52372204  0.47466951    -0.81100
O639        O  0.45310478  0.48524058  0.51581502    -0.79700
Zn640      Zn  0.50720920  0.47462668  0.50601539     1.55700
O641        O  0.48020780  0.52302712  0.44853621    -0.81100
Cd642      Cd  0.46994275  0.51232470  0.50315012     1.59700
Cd643      Cd  0.52130887  0.52526520  0.51403389     1.59600
O644        O  0.46820988  0.53782180  0.52609376    -0.81100
O645        O  0.50141853  0.50486852  0.49717459    -1.91600
Cd646      Cd  0.50681395  0.50832468  0.46465079     1.59900
O647        O  0.50279369  0.54755549  0.53230989    -0.81100
O648        O  0.51595597  0.47849962  0.45039729    -0.79700
C649        C  0.54194071  0.48711179  0.54049649     0.82800
C650        C  0.46023506  0.46650840  0.52208892     0.82500
O651        O  0.51668430  0.45629763  0.47963986    -0.78700
C652        C  0.46088193  0.52771187  0.45499171     0.83300
O653        O  0.53117375  0.47311062  0.52928245    -0.78800
C654        C  0.48232969  0.54991111  0.53567906     0.83400
C655        C  0.54513856  0.54057805  0.47145456     0.83700
O656        O  0.54264638  0.54178237  0.49243603    -0.81200
O657        O  0.48290441  0.71086027  0.76549299    -0.78700
C658        C  0.54372002  0.70839601  0.79391429     0.82300
O659        O  0.48064424  0.74274836  0.84216438    -0.79800
O660        O  0.54827982  0.77428693  0.80672210    -0.81300
O661        O  0.50049201  0.78308623  0.74656131    -0.81100
O662        O  0.46815954  0.74069922  0.75025615    -0.79700
Zn663      Zn  0.49610583  0.72161497  0.79364417     1.55700
O664        O  0.53484336  0.77230678  0.75296664    -0.81100
Cd665      Cd  0.48224024  0.76542823  0.76910550     1.59700
Cd666      Cd  0.49623177  0.76506318  0.82139923     1.59600
O667        O  0.45969119  0.78653362  0.78417769    -0.81100
O668        O  0.50181451  0.75214854  0.79175891    -1.91600
Cd669      Cd  0.53279946  0.75577486  0.78304041     1.59900
O670        O  0.47387933  0.78995210  0.81803137    -0.81100
O671        O  0.54973190  0.72599793  0.78434716    -0.79700
C672        C  0.47187600  0.72448469  0.83701118     0.82800
C673        C  0.47180913  0.72004245  0.75024299     0.82500
O674        O  0.52387078  0.70534114  0.79920565    -0.78700
C675        C  0.52073905  0.78303782  0.74160897     0.83300
O676        O  0.47567217  0.71533698  0.81846575    -0.78800
C677        C  0.45995276  0.79543548  0.80335134     0.83400
C678        C  0.54342234  0.78112136  0.82602241     0.83700
O679        O  0.52459501  0.77836333  0.83456980    -0.81200
O680        O  0.26086079  0.99051831  0.20910653    -0.78700
C681        C  0.30178235  0.04638895  0.20029878     0.82300
O682        O  0.33832918  0.98032194  0.23575748    -0.79800
O683        O  0.31471565  0.05199285  0.27178744    -0.81300
O684        O  0.24838634  0.01962293  0.27718316    -0.81100
O685        O  0.24692169  0.97957093  0.24120840    -0.79700
Zn686      Zn  0.29131510  0.00028708  0.21672842     1.55700
O687        O  0.26091892  0.05037306  0.26181749    -0.81100
Cd688      Cd  0.26808288  0.99480730  0.26375103     1.59700
Cd689      Cd  0.32159011  0.99911194  0.25889810     1.59600
O690        O  0.28044369  0.97318696  0.28836037    -0.81100
O691        O  0.29277349  0.00866631  0.24724281    -1.91600
Cd692      Cd  0.29119614  0.04116461  0.24954735     1.59900
O693        O  0.31633918  0.97804149  0.28467210    -0.81100
O694        O  0.29780834  0.05557128  0.21888196    -0.79700
C695        C  0.33133295  0.97097156  0.21824390     0.82800
C696        C  0.24555039  0.98173694  0.22021446     0.82500
O697        O  0.29990771  0.02573954  0.19769523    -0.78700
C698        C  0.24676214  0.04021297  0.27334374     0.83300
O699        O  0.31274138  0.97585239  0.21003030    -0.78800
C700        C  0.30019893  0.96900484  0.29418680     0.83400
C701        C  0.33332722  0.04431343  0.27749702     0.83700
O702        O  0.33970718  0.02517661  0.27162963    -0.81200
O703        O  0.19373217  0.80760898  0.98287956    -0.78700
C704        C  0.21991201  0.76221905  0.03615455     0.82300
O705        O  0.22732676  0.85456921  0.02601024    -0.79800
O706        O  0.28354307  0.80353610  0.03885408    -0.81300
O707        O  0.26259016  0.76954072  0.96662607    -0.81100
O708        O  0.21660873  0.80307293  0.95455003    -0.79700
Zn709      Zn  0.21241494  0.80392320  0.01011946     1.55700
O710        O  0.27709120  0.76498487  0.00015670    -0.81100
Cd711      Cd  0.24633178  0.79964470  0.97080799     1.59700
Cd712      Cd  0.25148289  0.83800192  0.00766547     1.59600
O713        O  0.26528145  0.82315548  0.95650933    -0.81100
O714        O  0.24256333  0.80709400  0.00245452    -1.91600
Cd715      Cd  0.26033234  0.78655120  0.02058281     1.59900
O716        O  0.26230885  0.85263590  0.97842627    -0.81100
O717        O  0.24005022  0.76660100  0.03930491    -0.79700
C718        C  0.21025381  0.84712201  0.03555816     0.82800
C719        C  0.19761971  0.80723310  0.96219201     0.82500
O720        O  0.20774427  0.77419701  0.02391585    -0.78700
C721        C  0.27532422  0.75929472  0.97992644     0.83300
O722        O  0.20351930  0.82770302  0.03177725    -0.78800
C723        C  0.26879145  0.84329652  0.96063657     0.83400
C724        C  0.28947431  0.82357388  0.03810594     0.83700
O725        O  0.27910348  0.83787319  0.02686212    -0.81200
C726        C  0.35849070  0.92068943  0.84560783     0.86300
C727        C  0.37324749  0.93503338  0.86036049    -0.54000
C728        C  0.38372218  0.92356000  0.87668552     0.09200
C729        C  0.37894083  0.89874038  0.87643610     0.20200
C730        C  0.37396468  0.90297837  0.83668435    -0.54700
C731        C  0.38456855  0.89116525  0.85264448     0.09300
C732        C  0.34347913  0.90880703  0.86175308    -0.54200
C733        C  0.35387484  0.89719937  0.87795185     0.09900
H734        H  0.37508115  0.95261479  0.85857144     0.14400
H735        H  0.38765609  0.88947348  0.88951857     0.00100
H736        H  0.37663247  0.90044094  0.81913357     0.14700
H737        H  0.32584496  0.91039225  0.86070112     0.14500
C738        C  0.65411950  0.85849993  0.92143499     0.86300
C739        C  0.66648107  0.87214637  0.90416159    -0.54000
C740        C  0.65308597  0.88429718  0.89074221     0.09200
C741        C  0.62862279  0.88159379  0.89559100     0.20200
C742        C  0.63983880  0.87553433  0.93366431    -0.54700
C743        C  0.62624560  0.88748368  0.92024512     0.09300
C744        C  0.63778311  0.84491312  0.90805620    -0.54200
C745        C  0.62455462  0.85679277  0.89445892     0.09900
H746        H  0.68416655  0.87272667  0.90315112     0.14400
H747        H  0.61798397  0.89108107  0.88420905     0.00100
H748        H  0.64071051  0.87864677  0.95120527     0.14700
H749        H  0.63648148  0.82722380  0.90970110     0.14500
C750        C  0.41807954  0.84723644  0.14677115     0.86300
C751        C  0.40261517  0.83535374  0.13077221    -0.54000
C752        C  0.38950879  0.84889495  0.11862441     0.09200
C753        C  0.39354200  0.87341993  0.12306698     0.20200
C754        C  0.43108151  0.86304978  0.13195116    -0.54700
C755        C  0.41824830  0.87692433  0.11946158     0.09300
C756        C  0.40283098  0.86227181  0.16030443    -0.54200
C757        C  0.39036773  0.87633154  0.14806547     0.09900
H758        H  0.40136596  0.81779061  0.12928410     0.14400
H759        H  0.38288169  0.88431505  0.11314779     0.00100
H760        H  0.44878073  0.86367039  0.13208426     0.14700
H761        H  0.40222335  0.86197290  0.17824059     0.14500
C762        C  0.34491191  0.15707104  0.07819433     0.86300
C763        C  0.35818601  0.13910690  0.06602106    -0.54000
C764        C  0.37017852  0.12583271  0.07968548     0.09200
C765        C  0.36763416  0.13147656  0.10439389     0.20200
C766        C  0.33108552  0.14450118  0.09512463    -0.54700
C767        C  0.34287580  0.13121219  0.10887805     0.09300
C768        C  0.36206804  0.16910067  0.09212431    -0.54200
C769        C  0.37397713  0.15585293  0.10584343     0.09900
H770        H  0.35867085  0.13686682  0.04829805     0.14400
H771        H  0.37734621  0.12071349  0.11553659     0.00100
H772        H  0.31345942  0.14619654  0.09630265     0.14700
H773        H  0.36448627  0.18671364  0.09124689     0.14500
C774        C  0.57610721  0.16676246  0.85044268     0.86300
C775        C  0.56169657  0.15512863  0.86766852    -0.54000
C776        C  0.57277705  0.14028503  0.88066570     0.09200
C777        C  0.59741105  0.13864117  0.87537469     0.20200
C778        C  0.59475844  0.17683260  0.86399877    -0.54700
C779        C  0.60569970  0.16251039  0.87741600     0.09300
C780        C  0.58731116  0.14807773  0.83769051    -0.54200
C781        C  0.59806241  0.13309623  0.85048031     0.09900
H782        H  0.54423156  0.15797759  0.86903051     0.14400
H783        H  0.60633596  0.12670320  0.88593921     0.00100
H784        H  0.59967286  0.19376984  0.86294274     0.14700
H785        H  0.58642523  0.14655974  0.81981277     0.14500
C786        C  0.65451229  0.08211301  0.15821552     0.86300
C787        C  0.64330923  0.10051823  0.17150536    -0.54000
C788        C  0.63031915  0.11396064  0.15912563     0.09200
C789        C  0.62974591  0.10793327  0.13445429     0.20200
C790        C  0.63547025  0.07021193  0.14647312    -0.54700
C791        C  0.62247049  0.08369507  0.13369742     0.09300
C792        C  0.66651086  0.09378517  0.13945545    -0.54200
C793        C  0.65373395  0.10743296  0.12721351     0.09900
H794        H  0.64527903  0.10253806  0.18924149     0.14400
H795        H  0.61991760  0.11949081  0.12438166     0.00100
H796        H  0.63237225  0.05288526  0.14813540     0.14700
H797        H  0.68394272  0.09195585  0.13658480     0.14500
O798        O  0.48436113  0.99173702  0.95449670    -0.78700
C799        C  0.52683865  0.04894821  0.96369282     0.82300
O800        O  0.54089180  0.96912590  0.00487353    -0.79800
O801        O  0.52982455  0.04088403  0.03710295    -0.81300
O802        O  0.45385490  0.02936275  0.01869230    -0.81100
O803        O  0.45636001  0.98980641  0.97784715    -0.79700
Zn804      Zn  0.51008369  0.00239884  0.97228992     1.55700
O805        O  0.47950376  0.05534962  0.01852798    -0.81100
Cd806      Cd  0.47001480  0.00110260  0.00751943     1.59700
Cd807      Cd  0.51914331  0.98792817  0.02274804     1.59600
O808        O  0.46559162  0.97592044  0.03060229    -0.81100
O809        O  0.50183744  0.00776059  0.00286931    -1.91600
Cd810      Cd  0.50834014  0.03930133  0.01011038     1.59900
O811        O  0.49954676  0.96573541  0.03915668    -0.81100
O812        O  0.52217269  0.05586223  0.98308417    -0.79700
C813        C  0.54392513  0.96740828  0.98413696     0.82800
C814        C  0.46453202  0.98702194  0.95859763     0.82500
O815        O  0.52285686  0.02927223  0.95787843    -0.78700
C816        C  0.45987081  0.04919881  0.02169588     0.83300
O817        O  0.53318343  0.97900969  0.97038645    -0.78800
C818        C  0.47896662  0.96329215  0.04075537     0.83400
C819        C  0.53946074  0.02636298  0.04892848     0.83700
O820        O  0.53676131  0.00589925  0.04555265    -0.81200
O821        O  0.97271371  0.79872014  0.23591797    -0.78700
C822        C  0.03261547  0.80272594  0.20550240     0.82300
O823        O  0.96740229  0.76876340  0.15845633    -0.79800
O824        O  0.03608412  0.73744750  0.18898269    -0.81300
O825        O  0.99320691  0.72551222  0.25091285    -0.81100
O826        O  0.96027042  0.76844594  0.25205533    -0.79700
Zn827      Zn  0.98502489  0.78936778  0.20658314     1.55700
O828        O  0.02634936  0.73848517  0.24319404    -0.81100
Cd829      Cd  0.97260722  0.74415254  0.23095787     1.59700
Cd830      Cd  0.98289655  0.74519817  0.17808739     1.59600
O831        O  0.94890966  0.72304605  0.21751602    -0.81100
O832        O  0.99027809  0.75840248  0.20724916    -1.91600
Cd833      Cd  0.02176039  0.75504242  0.21392671     1.59900
O834        O  0.96047936  0.72038710  0.18262504    -0.81100
O835        O  0.03856652  0.78440729  0.21369471    -0.79700
C836        C  0.95994304  0.78772965  0.16362858     0.82800
C837        C  0.96336776  0.78917331  0.25205407     0.82500
O838        O  0.01267874  0.80649013  0.20070836    -0.78700
C839        C  0.01366720  0.72665738  0.25476602     0.83300
O840        O  0.96432235  0.79663044  0.18216916    -0.78800
C841        C  0.94795251  0.71430726  0.19827218     0.83400
C842        C  0.03024739  0.73007577  0.17019840     0.83700
O843        O  0.01066125  0.73174126  0.16307151    -0.81200
O844        O  0.78522647  0.24186960  0.97724889    -0.78700
C845        C  0.79463358  0.20644053  0.03921618     0.82300
O846        O  0.76855960  0.16091669  0.97447451    -0.79800
O847        O  0.72609082  0.18784693  0.04109545    -0.81300
O848        O  0.71551387  0.25115225  0.00355686    -0.81100
O849        O  0.75230767  0.25052699  0.96349277    -0.79700
Zn850      Zn  0.78125922  0.21144155  0.99049469     1.55700
O851        O  0.73083821  0.24176606  0.03564472    -0.81100
Cd852      Cd  0.73158001  0.22970669  0.98098427     1.59700
Cd853      Cd  0.74289030  0.17730132  0.98958711     1.59600
O854        O  0.70958464  0.21260398  0.95995523    -0.81100
O855        O  0.75059757  0.20798740  0.99705414    -1.91600
Cd856      Cd  0.74593960  0.21219061  0.02911666     1.59900
O857        O  0.71863384  0.17758685  0.96618169    -0.81100
O858        O  0.77517700  0.20955189  0.04603620    -0.79700
C859        C  0.78561683  0.16844099  0.96517668     0.82800
C860        C  0.77265275  0.25451704  0.96603242     0.82500
O861        O  0.79931579  0.20672042  0.01864294    -0.78700
C862        C  0.71855897  0.25442547  0.02427903     0.83300
O863        O  0.79168123  0.18819294  0.96842586    -0.78800
C864        C  0.70718075  0.19201003  0.95621171     0.83400
C865        C  0.72313498  0.16806805  0.03501958     0.83700
O866        O  0.73059744  0.16067382  0.01675622    -0.81200
O867        O  0.24983169  0.02218236  0.71732700    -0.78700
C868        C  0.21448824  0.96062162  0.71133036     0.82300
O869        O  0.16921082  0.02919370  0.73276365    -0.79800
O870        O  0.19631583  0.96502716  0.78176483    -0.81300
O871        O  0.25678446  0.00472768  0.78628350    -0.81100
O872        O  0.25406343  0.04180540  0.74812870    -0.79700
Zn873      Zn  0.21992104  0.00912113  0.72222347     1.55700
O874        O  0.25035725  0.97088051  0.77384908    -0.81100
Cd875      Cd  0.23465616  0.02437049  0.76973572     1.59700
Cd876      Cd  0.18341207  0.01393611  0.76070342     1.59600
O877        O  0.21841127  0.04498848  0.79189609    -0.81100
O878        O  0.21411241  0.00566676  0.75297576    -1.91600
Cd879      Cd  0.21979547  0.97443538  0.75956706     1.59900
O880        O  0.18332284  0.03712244  0.78634507    -0.81100
O881        O  0.21671193  0.95475931  0.73144114    -0.79700
C882        C  0.17843524  0.03561339  0.71489184     0.82800
C883        C  0.25999984  0.03662507  0.72858269     0.82500
O884        O  0.21576552  0.98069155  0.70568393    -0.78700
C885        C  0.26197242  0.98448826  0.78471067     0.83300
O886        O  0.19784593  0.02980998  0.71000439    -0.78800
C887        C  0.19822392  0.04764473  0.79658517     0.83400
C888        C  0.17629562  0.97029265  0.78450127     0.83700
O889        O  0.16746709  0.98662181  0.77447946    -0.81200
C890        C  0.15548996  0.15098726  0.92346099     0.86300
C891        C  0.14304682  0.13619966  0.93966140    -0.54000
C892        C  0.12771926  0.12312445  0.92982844     0.09200
C893        C  0.12628105  0.12604499  0.90450341     0.20200
C894        C  0.16493057  0.13489819  0.90614242    -0.54700
C895        C  0.14978499  0.12187070  0.89584047     0.09300
C896        C  0.13762663  0.16355536  0.91071550    -0.54200
C897        C  0.12214499  0.15074461  0.90105240     0.09900
H898        H  0.14590489  0.13632775  0.95738323     0.14400
H899        H  0.11353877  0.11573748  0.89682328     0.00100
H900        H  0.18205812  0.13380586  0.90224534     0.14700
H901        H  0.13749098  0.18130810  0.90926641     0.14500
C902        C  0.14058307  0.92407891  0.16640524     0.86300
C903        C  0.12500758  0.94005852  0.15440038    -0.54000
C904        C  0.11187488  0.93024356  0.13905080     0.09200
C905        C  0.11516093  0.90525538  0.13733621     0.20200
C906        C  0.12529124  0.90659067  0.17630640    -0.54700
C907        C  0.11186145  0.89684039  0.16111703     0.09300
C908        C  0.15275318  0.91190144  0.14783045    -0.54200
C909        C  0.13964655  0.90218074  0.13250882     0.09900
H910        H  0.12497038  0.95765936  0.15721544     0.14400
H911        H  0.10442072  0.89736381  0.12488564     0.00100
H912        H  0.12422207  0.90264755  0.19368866     0.14700
H913        H  0.17045414  0.91108021  0.14694371     0.14500
C914        C  0.91742908  0.16659234  0.14640945     0.86300
C915        C  0.93286118  0.15429760  0.13032897    -0.54000
C916        C  0.92255808  0.13880496  0.11774811     0.09200
C917        C  0.89788830  0.13724768  0.12199991     0.20200
C918        C  0.89941241  0.17604552  0.13138760    -0.54700
C919        C  0.88923169  0.16078626  0.11845200     0.09300
C920        C  0.90640441  0.14827101  0.15955607    -0.54200
C921        C  0.89616345  0.13298046  0.14695303     0.09900
H922        H  0.95028375  0.15681755  0.12906298     0.14400
H923        H  0.88954442  0.12470291  0.11174965     0.00100
H924        H  0.89562858  0.19345461  0.13055843     0.14700
H925        H  0.90653999  0.14759266  0.17750896     0.14500
C926        C  0.83647775  0.85575915  0.07839163     0.86300
C927        C  0.82453384  0.87000473  0.09570698    -0.54000
C928        C  0.83779702  0.88414888  0.10705501     0.09200
C929        C  0.86206148  0.88251660  0.09981770     0.20200
C930        C  0.84805198  0.87244639  0.06351594    -0.54700
C931        C  0.86174552  0.88628724  0.07459163     0.09300
C932        C  0.85481066  0.84440589  0.09130825    -0.54200
C933        C  0.86843177  0.85815618  0.10231707     0.09900
H934        H  0.80722051  0.86911961  0.09892280     0.14400
H935        H  0.87312639  0.89387785  0.10861471     0.00100
H936        H  0.84644291  0.87243362  0.04563804     0.14700
H937        H  0.85677532  0.82667857  0.09161856     0.14500
C938        C  0.08131116  0.85028837  0.85117881     0.86300
C939        C  0.10049549  0.84147083  0.86515716    -0.54000
C940        C  0.11181431  0.85716595  0.87630569     0.09200
C941        C  0.10279529  0.88052578  0.87267868     0.20200
C942        C  0.06724707  0.86307107  0.86810862    -0.54700
C943        C  0.07849116  0.87896879  0.87953497     0.09300
C944        C  0.09113234  0.86805228  0.83644887    -0.54200
C945        C  0.10212446  0.88402755  0.84748056     0.09900
H946        H  0.10442726  0.82424003  0.86715560     0.14400
H947        H  0.11216098  0.89340140  0.88141663     0.00100
H948        H  0.05017950  0.85946794  0.87105550     0.14700
H949        H  0.08930968  0.86802735  0.81857800     0.14500
C950        C  0.85412552  0.08518733  0.83817585     0.86300
C951        C  0.87148677  0.10034567  0.82828939    -0.54000
C952        C  0.88488175  0.10975141  0.84362448     0.09200
C953        C  0.87984504  0.10298671  0.86759344     0.20200
C954        C  0.86715972  0.06848885  0.85195257    -0.54700
C955        C  0.88061596  0.07756963  0.86755082     0.09300
C956        C  0.84226735  0.09956141  0.85532600    -0.54200
C957        C  0.85554863  0.10870714  0.87085275     0.09900
H958        H  0.87330900  0.10377011  0.81086788     0.14400
H959        H  0.89066371  0.11100647  0.87983105     0.00100
H960        H  0.86498754  0.05094852  0.84999468     0.14700
H961        H  0.82468378  0.10206278  0.85533346     0.14500
O962        O  0.97932106  0.04945353  0.02534549    -0.78700
C963        C  0.03630598  0.04431192  0.98080833     0.82300
O964        O  0.95509104  0.00450544  0.96478666    -0.79800
O965        O  0.02801950  0.97250279  0.97088422    -0.81300
O966        O  0.02002940  0.98770522  0.05041217    -0.81100
O967        O  0.97717130  0.02303583  0.05053823    -0.79700
Zn968      Zn  0.99023495  0.03415238  0.99773542     1.55700
O969        O  0.04348357  0.98403627  0.02248996    -0.81100
Cd970      Cd  0.99144343  0.99678522  0.03455926     1.59700
Cd971      Cd  0.97531244  0.98452437  0.98439712     1.59600
O972        O  0.97014464  0.97134485  0.03847645    -0.81100
O973        O  0.99590416  0.00321036  0.00258077    -1.91600
Cd974      Cd  0.02709677  0.99664826  0.99512130     1.59900
O975        O  0.95572637  0.96519884  0.00517068    -0.81100
O976        O  0.04336541  0.02478051  0.98393429    -0.79700
C977        C  0.95389160  0.02542029  0.96393740     0.82800
C978        C  0.97391579  0.04277384  0.04450341     0.82500
O979        O  0.01667952  0.04971713  0.98544140    -0.78700
C980        C  0.03867995  0.98209276  0.04291831     0.83300
O981        O  0.96627746  0.03749114  0.97560593    -0.78800
C982        C  0.95669005  0.96146774  0.02595582     0.83400
C983        C  0.01388885  0.96112081  0.96045828     0.83700
O984        O  0.99338277  0.96371778  0.96360791    -0.81200
O985        O  0.20500660  0.27320680  0.98347555    -0.78700
C986        C  0.20166397  0.31208994  0.04238408     0.82300
O987        O  0.22960851  0.35125427  0.97614129    -0.79800
O988        O  0.27237310  0.32212454  0.04245989    -0.81300
O989        O  0.27585474  0.25884411  0.00730003    -0.81100
O990        O  0.23562701  0.25787108  0.97055308    -0.79700
Zn991      Zn  0.21322438  0.30311252  0.99429025     1.55700
O992        O  0.26128080  0.26954797  0.03936306    -0.81100
Cd993      Cd  0.25945164  0.27885501  0.98424441     1.59700
Cd994      Cd  0.25410681  0.33295058  0.99166319     1.59600
O995        O  0.28157374  0.29257213  0.96108283    -0.81100
O996        O  0.24394313  0.30339415  0.00009024    -1.91600
Cd997      Cd  0.24904004  0.30014695  0.03212867     1.59900
O998        O  0.27688231  0.32845858  0.96760890    -0.81100
O999        O  0.22069490  0.30709503  0.04942278    -0.79700
C1000       C  0.21191761  0.34455288  0.96724991     0.82800
C1001       C  0.21494657  0.25743097  0.97379880     0.82500
O1002       O  0.19679899  0.31124239  0.02191755    -0.78700
C1003       C  0.27314211  0.25637595  0.02812951     0.83300
O1004       O  0.20450726  0.32552903  0.97139050    -0.78800
C1005       C  0.28594490  0.31275023  0.95711326     0.83400
C1006       C  0.27761172  0.34112736  0.03565696     0.83700
O1007       O  0.27002309  0.34897499  0.01761302    -0.81200
O1008       O  0.76392975  0.48553195  0.70917914    -0.78700
C1009       C  0.79656071  0.54627730  0.70881601     0.82300
O1010       O  0.84060621  0.48057340  0.74029042    -0.79800
O1011       O  0.80468053  0.54500775  0.78004156    -0.81300
O1012       O  0.74710630  0.50240872  0.78114835    -0.81100
O1013       O  0.74966709  0.46957189  0.73890761    -0.79700
Zn1014     Zn  0.79296096  0.49753414  0.71942413     1.55700
O1015       O  0.75323830  0.53617941  0.76850848    -0.81100
Cd1016     Cd  0.76899858  0.48282549  0.76390061     1.59700
Cd1017     Cd  0.82069684  0.49511088  0.76409428     1.59600
O1018       O  0.78270505  0.45961071  0.78567095    -0.81100
O1019       O  0.79182845  0.50188625  0.75071865    -1.91600
Cd1020     Cd  0.78434107  0.53309187  0.75594850     1.59900
O1021       O  0.81694565  0.47158964  0.78848585    -0.81100
O1022       O  0.78926411  0.55207555  0.72771669    -0.79700
C1023       C  0.83587828  0.47276834  0.72124728     0.82800
C1024       C  0.74884714  0.47444559  0.71838535     0.82500
O1025       O  0.79923946  0.52611630  0.70381733    -0.78700
C1026       C  0.74188534  0.52266312  0.77963153     0.83300
O1027       O  0.81756018  0.47678902  0.71196698    -0.78800
C1028       C  0.80173339  0.45868191  0.79444185     0.83400
C1029       C  0.82395920  0.54009329  0.78626378     0.83700
O1030       O  0.83388001  0.52281545  0.77953424    -0.81200
O1031       O  0.98071704  0.20241271  0.79858767    -0.78700
C1032       C  0.03200825  0.23301818  0.75320102     0.82300
O1033       O  0.01990687  0.23929548  0.84655204    -0.79800
O1034       O  0.03036366  0.29728596  0.79163614    -0.81300
O1035       O  0.95806329  0.26917790  0.76231994    -0.81100
O1036       O  0.95185471  0.22421797  0.79371903    -0.79700
Zn1037     Zn  0.00657008  0.22319349  0.79535677     1.55700
O1038       O  0.98900522  0.28627295  0.75401896    -0.81100
Cd1039     Cd  0.96558857  0.25463179  0.79202976     1.59700
Cd1040     Cd  0.00341726  0.26355968  0.82855909     1.59600
O1041       O  0.95076621  0.27256300  0.81618446    -0.81100
O1042       O  0.99729022  0.25337534  0.79797184    -1.91600
Cd1043     Cd  0.01181127  0.27293668  0.77601369     1.59900
O1044       O  0.97525306  0.27649823  0.84330889    -0.81100
O1045       O  0.03166840  0.25372311  0.75624697    -0.79700
C1046       C  0.03005772  0.22220112  0.83964651     0.82800
C1047       C  0.96009883  0.20540272  0.79751742     0.82500
O1048       O  0.02201783  0.21979244  0.76601559    -0.78700
C1049       C  0.96896440  0.28202120  0.75006453     0.83300
O1050       O  0.02752165  0.21515398  0.81994947    -0.78800
C1051       C  0.95611784  0.27936757  0.83530926     0.83400
C1052       C  0.03426435  0.30028735  0.81218394     0.83700
O1053       O  0.02531008  0.28873199  0.82709197    -0.81200
C1054       C  0.84164809  0.35804420  0.92525966     0.86300
C1055       C  0.85500857  0.37419109  0.93949763    -0.54000
C1056       C  0.87025487  0.38597748  0.92809298     0.09200
C1057       C  0.86979990  0.38114951  0.90299883     0.20200
C1058       C  0.83107942  0.37278579  0.90739987    -0.54700
C1059       C  0.84580255  0.38505432  0.89565075     0.09300
C1060       C  0.85867774  0.34440527  0.91285357    -0.54200
C1061       C  0.87337892  0.35628900  0.90119990     0.09900
H1062       H  0.85240342  0.37622231  0.95709225     0.14400
H1063       H  0.88192532  0.39016652  0.89307646     0.00100
H1064       H  0.81359237  0.37381872  0.90469270     0.14700
H1065       H  0.85931861  0.32660763  0.91374122     0.14500
C1066       C  0.14398998  0.42571074  0.83863661     0.86300
C1067       C  0.12797477  0.41045378  0.82682500    -0.54000
C1068       C  0.11447030  0.39929637  0.84070119     0.09200
C1069       C  0.11821434  0.40465236  0.86546454     0.20200
C1070       C  0.12916324  0.44083834  0.85271403    -0.54700
C1071       C  0.11588480  0.42972761  0.86687399     0.09300
C1072       C  0.15587636  0.41116107  0.85551626    -0.54200
C1073       C  0.14264073  0.40043969  0.86996009     0.09900
H1074       H  0.12764741  0.40840650  0.80899086     0.14400
H1075       H  0.10706560  0.39601375  0.87690400     0.00100
H1076       H  0.12914446  0.45857943  0.85225903     0.14700
H1077       H  0.17356569  0.41000444  0.85617596     0.14500
C1078       C  0.90732668  0.67324889  0.84534249     0.86300
C1079       C  0.88910559  0.68248979  0.86033155    -0.54000
C1080       C  0.87795180  0.66677449  0.87165953     0.09200
C1081       C  0.88617614  0.64317977  0.86712831     0.20200
C1082       C  0.92184187  0.65956415  0.86106684    -0.54700
C1083       C  0.91081626  0.64358061  0.87224617     0.09300
C1084       C  0.89583488  0.65619624  0.83072528    -0.54200
C1085       C  0.88532291  0.64011609  0.84196721     0.09900
H1086       H  0.88486861  0.69967637  0.86191698     0.14400
H1087       H  0.87721740  0.63046185  0.87649091     0.00100
H1088       H  0.93944408  0.66137041  0.86203099     0.14700
H1089       H  0.89700660  0.65622472  0.81280289     0.14500
C1090       C  0.08050601  0.36311783  0.14381945     0.86300
C1091       C  0.06435903  0.37611476  0.12936661    -0.54000
C1092       C  0.07392861  0.39093536  0.11539449     0.09200
C1093       C  0.09913374  0.39114329  0.11722083     0.20200
C1094       C  0.09673438  0.35269150  0.12742945    -0.54700
C1095       C  0.10650840  0.36721467  0.11357138     0.09300
C1096       C  0.09410283  0.38070880  0.15562557    -0.54200
C1097       C  0.10364978  0.39551262  0.14186317     0.09900
H1098       H  0.04685671  0.37364780  0.13025108     0.14400
H1099       H  0.10733408  0.40307509  0.10626591     0.00100
H1100       H  0.10104712  0.33545991  0.12703344     0.14700
H1101       H  0.09628593  0.38122019  0.17343951     0.14500
C1102       C  0.84986034  0.58441029  0.15451007     0.86300
C1103       C  0.86628491  0.56953962  0.14224095    -0.54000
C1104       C  0.87997263  0.58033509  0.12824253     0.09200
C1105       C  0.87648874  0.60544286  0.12853852     0.20200
C1106       C  0.86431472  0.60124784  0.16681268    -0.54700
C1107       C  0.87841977  0.61231797  0.15313081     0.09300
C1108       C  0.83862553  0.59786361  0.13642189    -0.54200
C1109       C  0.85235342  0.60874099  0.12273792     0.09900
H1110       H  0.86602074  0.55178691  0.14352833     0.14400
H1111       H  0.88734018  0.61448733  0.11718645     0.00100
H1112       H  0.86381201  0.60399589  0.18450251     0.14700
H1113       H  0.82097358  0.59869363  0.13466757     0.14500
C1114       C  0.15039774  0.66020605  0.07953266     0.86300
C1115       C  0.16178215  0.64688930  0.09790586    -0.54000
C1116       C  0.14800406  0.63354815  0.10949167     0.09200
C1117       C  0.12397719  0.63509151  0.10183249     0.20200
C1118       C  0.13899540  0.64260094  0.06542655    -0.54700
C1119       C  0.12499100  0.62974612  0.07705461     0.09300
C1120       C  0.13189484  0.67254596  0.09118834    -0.54200
C1121       C  0.11806299  0.65966583  0.10304284     0.09900
H1122       H  0.17930898  0.64678211  0.10053131     0.14400
H1123       H  0.11275650  0.62438160  0.11123701     0.00100
H1124       H  0.14151623  0.64050158  0.04778941     0.14700
H1125       H  0.12980851  0.69018511  0.08968819     0.14500
O1126       O  0.01634913  0.56126530  0.01291838    -0.78700
C1127       C  0.97665950  0.56162888  0.95124543     0.82300
O1128       O  0.95996022  0.51434694  0.03005309    -0.79800
O1129       O  0.96687251  0.48945157  0.95478266    -0.81300
O1130       O  0.04405106  0.50274443  0.96357615    -0.81100
O1131       O  0.04475016  0.53902405  0.00751314    -0.79700
Zn1132     Zn  0.99109965  0.54747935  0.99717965     1.55700
O1133       O  0.01656923  0.50347087  0.93933344    -0.81100
Cd1134     Cd  0.02954927  0.51226812  0.99297959     1.59700
Cd1135     Cd  0.98060713  0.49636504  0.00868342     1.59600
O1136       O  0.03485705  0.48666889  0.01419236    -0.81100
O1137       O  0.99754220  0.51741468  0.98942416    -1.91600
Cd1138     Cd  0.98985094  0.51356113  0.95769622     1.59900
O1139       O  0.00236947  0.47660278  0.02715490    -0.81100
O1140       O  0.97736290  0.54205812  0.94383940    -0.79700
C1141       C  0.95592556  0.53497031  0.03050387     0.82800
C1142       C  0.03646759  0.55656134  0.01553616     0.82500
O1143       O  0.98271459  0.56619325  0.97086753    -0.78700
C1144       C  0.03647678  0.49960744  0.94419046     0.83300
O1145       O  0.96615320  0.54831289  0.01820297    -0.78800
C1146       C  0.02319515  0.47467499  0.02658947     0.83400
C1147       C  0.95745168  0.47601865  0.96768426     0.83700
O1148       O  0.96107693  0.47604838  0.98854433    -0.81200
O1149       O  0.52779545  0.81228476  0.29970844    -0.78700
C1150       C  0.47618734  0.79157386  0.25172146     0.82300
O1151       O  0.48538462  0.77382327  0.34422535    -0.79800
O1152       O  0.47079904  0.72309367  0.28621641    -0.81300
O1153       O  0.54460226  0.74844083  0.25673599    -0.81100
O1154       O  0.55595118  0.78955626  0.29469823    -0.79700
Zn1155     Zn  0.50126537  0.79352499  0.29485479     1.55700
O1156       O  0.51227980  0.73349971  0.24891286    -0.81100
Cd1157     Cd  0.53984072  0.76030798  0.28852231     1.59700
Cd1158     Cd  0.50275229  0.75085757  0.32496697     1.59600
O1159       O  0.55371652  0.73850580  0.31013284    -0.81100
O1160       O  0.50832483  0.76296113  0.29495168    -1.91600
Cd1161     Cd  0.49073227  0.74753557  0.27167949     1.59900
O1162       O  0.53107809  0.73678173  0.33895661    -0.81100
O1163       O  0.47369117  0.77076303  0.25255224    -0.79700
C1164       C  0.47616751  0.79166123  0.33789364     0.82800
C1165       C  0.54824563  0.80846391  0.29934686     0.82500
O1166       O  0.48719061  0.80174070  0.26632700    -0.78700
C1167       C  0.53235364  0.73685886  0.24427248     0.83300
O1168       O  0.48024860  0.79997657  0.31908030    -0.78800
C1169       C  0.54921335  0.73197964  0.32957323     0.83400
C1170       C  0.47060323  0.71609649  0.30620076     0.83700
O1171       O  0.48202334  0.72499862  0.32131298    -0.81200
O1172       O  0.51310990  0.21512701  0.72839656    -0.78700
C1173       C  0.45414755  0.21373873  0.69144144     0.82300
O1174       O  0.52317289  0.24026588  0.65006744    -0.79800
O1175       O  0.45725782  0.28481341  0.67781218    -0.81300
O1176       O  0.49455484  0.28715848  0.74088482    -0.81100
O1177       O  0.52774076  0.24527846  0.74269540    -0.79700
Zn1178     Zn  0.50243671  0.22382106  0.69829066     1.55700
O1179       O  0.46111418  0.27550522  0.73228625    -0.81100
Cd1180     Cd  0.51525172  0.26898336  0.72096983     1.59700
Cd1181     Cd  0.50743180  0.26558273  0.66738671     1.59600
O1182       O  0.53878610  0.28991889  0.70771230    -0.81100
O1183       O  0.49797100  0.25491922  0.69691833    -1.91600
Cd1184     Cd  0.46639358  0.26165709  0.70094776     1.59900
O1185       O  0.53067675  0.28968784  0.67171665    -0.81100
O1186       O  0.44774113  0.23350916  0.69453351    -0.79700
C1187       C  0.53015116  0.22158814  0.65678911     0.82800
C1188       C  0.52336940  0.22483873  0.74387343     0.82500
O1189       O  0.47425084  0.20835230  0.69251955    -0.78700
C1190       C  0.47410901  0.28632435  0.74475593     0.83300
O1191       O  0.52439879  0.21388230  0.67545496    -0.78800
C1192       C  0.54172212  0.29695446  0.68802338     0.83400
C1193       C  0.46397791  0.28924049  0.65839413     0.83700
O1194       O  0.48157887  0.28089405  0.65058573    -0.81200
O1195       O  0.69939980  0.97946708  0.79924375    -0.78700
C1196       C  0.75041700  0.03007570  0.78016397     0.82300
O1197       O  0.65974100  0.03369515  0.77399153    -0.79800
O1198       O  0.71140460  0.04473158  0.71359969    -0.81300
O1199       O  0.73434001  0.96726041  0.73070727    -0.81100
O1200       O  0.69757880  0.95524234  0.77182047    -0.79700
Zn1201     Zn  0.70680944  0.00815449  0.78429236     1.55700
O1202       O  0.74702523  0.99976708  0.72007132    -0.81100
Cd1203     Cd  0.70431989  0.97503214  0.74468725     1.59700
Cd1204     Cd  0.67341521  0.01760633  0.74668261     1.59600
O1205       O  0.67999714  0.96975693  0.72194790    -0.81100
O1206       O  0.70309537  0.00624427  0.75305235    -1.91600
Cd1207     Cd  0.72635116  0.02228152  0.73634724     1.59900
O1208       O  0.65398812  0.99327797  0.73278405    -0.81100
O1209       O  0.74731800  0.03610742  0.76009097    -0.79700
C1210       C  0.66868516  0.03895807  0.79233701     0.82800
C1211       C  0.69582445  0.96005534  0.79228954     0.82500
O1212       O  0.73715682  0.01748475  0.79013774    -0.78700
C1213       C  0.74873677  0.97885386  0.72101196     0.83300
O1214       O  0.68731107  0.03127850  0.79774815    -0.78800
C1215       C  0.66040743  0.97694148  0.72116381     0.83400
C1216       C  0.69111006  0.04947480  0.71069600     0.83700
O1217       O  0.67624560  0.04060932  0.72228672    -0.81200
C1218       C  0.35110452  0.08984591  0.65150590     0.86300
C1219       C  0.37065903  0.07858693  0.64011182    -0.54000
C1220       C  0.38070079  0.09141687  0.62476730     0.09200
C1221       C  0.37064714  0.11444363  0.62233907     0.20200
C1222       C  0.36087478  0.11105840  0.66120114    -0.54700
C1223       C  0.37104050  0.12397519  0.64594118     0.09300
C1224       C  0.33634982  0.09751615  0.63255043    -0.54200
C1225       C  0.34641065  0.11020546  0.61717111     0.09900
H1226       H  0.37578735  0.06182135  0.64339982     0.14400
H1227       H  0.37923353  0.12462428  0.60993718     0.00100
H1228       H  0.36092834  0.11519503  0.67863171     0.14700
H1229       H  0.31914204  0.09339460  0.63167009     0.14500
C1230       C  0.58105995  0.85560486  0.64919310     0.86300
C1231       C  0.56572713  0.86597082  0.63163810    -0.54000
C1232       C  0.57628174  0.87979170  0.61742994     0.09200
C1233       C  0.60081077  0.88214564  0.62200930     0.20200
C1234       C  0.59941187  0.84474795  0.63561600    -0.54700
C1235       C  0.60985734  0.85853291  0.62147735     0.09300
C1236       C  0.59171761  0.87537043  0.66044114    -0.54200
C1237       C  0.60200145  0.88928357  0.64636678     0.09900
H1238       H  0.54833588  0.86311532  0.63037143     0.14400
H1239       H  0.60911420  0.89362335  0.61059469     0.00100
H1240       H  0.60342594  0.82740975  0.63682344     0.14700
H1241       H  0.59148586  0.87788378  0.67823109     0.14500
C1242       C  0.66168379  0.15819864  0.58077319     0.86300
C1243       C  0.67400539  0.14351654  0.59742565    -0.54000
C1244       C  0.66110202  0.12865024  0.60819435     0.09200
C1245       C  0.63670737  0.13004670  0.60117367     0.20200
C1246       C  0.65016319  0.14189140  0.56529397    -0.54700
C1247       C  0.63682473  0.12723902  0.57570751     0.09300
C1248       C  0.64322788  0.16865851  0.59434602    -0.54200
C1249       C  0.62984815  0.15420006  0.60471944     0.09900
H1250       H  0.69128047  0.14478130  0.60086915     0.14400
H1251       H  0.62606764  0.11817527  0.60976771     0.00100
H1252       H  0.65157306  0.14283473  0.54743927     0.14700
H1253       H  0.64061283  0.18629147  0.59512594     0.14500
C1254       C  0.34819705  0.86235874  0.41716604     0.86300
C1255       C  0.35948251  0.87980888  0.43149163    -0.54000
C1256       C  0.37402719  0.89241936  0.42028571     0.09200
C1257       C  0.37546865  0.88697737  0.39547165     0.20200
C1258       C  0.33739192  0.87573998  0.39834548    -0.54700
C1259       C  0.35158731  0.88892326  0.38685047     0.09300
C1260       C  0.36676571  0.84970336  0.40585994    -0.54200
C1261       C  0.38103630  0.86232888  0.39450665     0.09900
H1262       H  0.35686447  0.88145569  0.44917397     0.14400
H1263       H  0.38765621  0.89730403  0.38702857     0.00100
H1264       H  0.32018301  0.87495657  0.39451677     0.14700
H1265       H  0.36819627  0.83193474  0.40648847     0.14500
C1266       C  0.65310796  0.92912389  0.34156889     0.86300
C1267       C  0.63970402  0.90961401  0.33300696    -0.54000
C1268       C  0.62881695  0.89836847  0.34894027     0.09200
C1269       C  0.63245509  0.90758415  0.37240060     0.20200
C1270       C  0.63648414  0.94327992  0.35468776    -0.54700
C1271       C  0.62543160  0.93198348  0.37083894     0.09300
C1272       C  0.66797626  0.91901878  0.35933297    -0.54200
C1273       C  0.65740674  0.90818297  0.37576536     0.09900
H1274       H  0.63879535  0.90446400  0.31593778     0.14400
H1275       H  0.62394112  0.89830144  0.38546085     0.00100
H1276       H  0.63358460  0.96050409  0.35118469     0.14700
H1277       H  0.68562813  0.92049606  0.35886317     0.14500
C1278       C  0.41131346  0.16665370  0.35412239     0.86300
C1279       C  0.39280736  0.17653327  0.36837415    -0.54000
C1280       C  0.38284657  0.16175689  0.38193115     0.09200
C1281       C  0.39218000  0.13822342  0.37984745     0.20200
C1282       C  0.42669293  0.15573710  0.37088420    -0.54700
C1283       C  0.41691115  0.14070839  0.38422248     0.09300
C1284       C  0.40055364  0.14757597  0.34174260    -0.54200
C1285       C  0.39052942  0.13270857  0.35499190     0.09900
H1286       H  0.38816447  0.19367014  0.36868284     0.14400
H1287       H  0.38404766  0.12609960  0.39069598     0.00100
H1288       H  0.44409814  0.15900534  0.37149942     0.14700
H1289       H  0.40041679  0.14624949  0.32382378     0.14500
O1290       O  0.52270647  0.96554611  0.51880987    -0.78700
C1291       C  0.46571146  0.96765470  0.47554671     0.82300
O1292       O  0.54177097  0.01599136  0.45814564    -0.79800
O1293       O  0.46778568  0.03591332  0.46559700    -0.81300
O1294       O  0.47844581  0.03092268  0.54412940    -0.81100
O1295       O  0.51584065  0.98949236  0.54587945    -0.79700
Zn1296     Zn  0.51187912  0.98115186  0.49071388     1.55700
O1297       O  0.45419188  0.02820168  0.51697880    -0.81100
Cd1298     Cd  0.50650171  0.01770328  0.52970604     1.59700
Cd1299     Cd  0.52111904  0.03327094  0.48003470     1.59600
O1300       O  0.53058711  0.04038720  0.53475447    -0.81100
O1301       O  0.50336998  0.01138877  0.49755143    -1.91600
Cd1302     Cd  0.47166849  0.01469243  0.49113705     1.59900
O1303       O  0.54109883  0.05213207  0.50154785    -0.81100
O1304       O  0.45724898  0.98590516  0.48128058    -0.79700
C1305       C  0.54531491  0.99544070  0.45539196     0.82800
C1306       C  0.52248313  0.97069842  0.53932814     0.82500
O1307       O  0.48613590  0.96392153  0.47790280    -0.78700
C1308       C  0.45923336  0.03398861  0.53655050     0.83300
O1309       O  0.53539045  0.98112502  0.46697639    -0.78800
C1310       C  0.54246876  0.05252824  0.52269533     0.83400
C1311       C  0.47929024  0.05055517  0.45640935     0.83700
O1312       O  0.49954421  0.05317849  0.46107417    -0.81200
C1313       C  0.46791595  0.06460500  0.44011248    -0.05500
C1314       C  0.45145239  0.05525952  0.42693586    -0.05400
C1315       C  0.43806286  0.06831766  0.41365254    -0.23500
C1316       C  0.44066910  0.09108552  0.41344798     0.18700
C1317       C  0.45740894  0.10072060  0.42633210     0.15900
C1318       C  0.47110060  0.08737990  0.43946773    -0.18600
C1319       C  0.45991689  0.12355244  0.42604552    -0.20400
C1320       C  0.44630247  0.13660093  0.41284824    -0.13000
C1321       C  0.42976244  0.12711170  0.39990213     0.03700
C1322       C  0.42685576  0.10434117  0.40049589    -0.25100
H1323       H  0.44866325  0.03773322  0.42725173     0.08800
H1324       H  0.42542099  0.06062650  0.40383132     0.12400
H1325       H  0.48350695  0.09474719  0.44984823     0.12300
H1326       H  0.47252590  0.13130004  0.43585508     0.12100
H1327       H  0.44877537  0.15416990  0.41262214     0.12600
H1328       H  0.41434983  0.09688397  0.39029432     0.14600
C1329       C  0.60806991  0.94169788  0.38548919    -0.05500
C1330       C  0.59148838  0.92810180  0.39373751    -0.05400
C1331       C  0.57603841  0.93602526  0.40875272    -0.23500
C1332       C  0.57641698  0.95793207  0.41568137     0.18700
C1333       C  0.59228478  0.97220110  0.40695285     0.15900
C1334       C  0.60809630  0.96400521  0.39195224    -0.18600
C1335       C  0.59211563  0.99430948  0.41363423    -0.20400
C1336       C  0.57666916  0.00201833  0.42902047    -0.13000
C1337       C  0.56123245  0.98773595  0.43830270     0.03700
C1338       C  0.56117873  0.96569325  0.43127909    -0.25100
H1339       H  0.59022366  0.91118206  0.38852435     0.08800
H1340       H  0.56375380  0.92493760  0.41497806     0.12400
H1341       H  0.62064129  0.97482920  0.38581418     0.12300
H1342       H  0.60401223  0.00562186  0.40706946     0.12100
H1343       H  0.57707849  0.01908835  0.43397266     0.12600
H1344       H  0.54923242  0.95448335  0.43796078     0.14600
C1345       C  0.38812869  0.90864190  0.43157499    -0.05500
C1346       C  0.37893093  0.92461068  0.44554764    -0.05400
C1347       C  0.39225926  0.93931274  0.45702307    -0.23500
C1348       C  0.41506679  0.93793053  0.45511605     0.18700
C1349       C  0.42447832  0.92167049  0.44134927     0.15900
C1350       C  0.41093060  0.90736932  0.42936273    -0.18600
C1351       C  0.44728267  0.91987503  0.43997206    -0.20400
C1352       C  0.46065598  0.93426759  0.45180649    -0.13000
C1353       C  0.45151601  0.95094835  0.46500942     0.03700
C1354       C  0.42860709  0.95254644  0.46669554    -0.25100
H1355       H  0.36137920  0.92574031  0.44748914     0.08800
H1356       H  0.38474499  0.95160690  0.46755085     0.12400
H1357       H  0.41809305  0.89482726  0.41885738     0.12300
H1358       H  0.45478541  0.90742220  0.42963120     0.12100
H1359       H  0.47819927  0.93274424  0.45008264     0.12600
H1360       H  0.42129845  0.96524680  0.47689557     0.14600
C1361       C  0.62217992  0.11200595  0.56319485    -0.05500
C1362       C  0.62825497  0.10372385  0.54230093    -0.05400
C1363       C  0.61388810  0.09081904  0.52983692    -0.23500
C1364       C  0.59310120  0.08576997  0.53800669     0.18700
C1365       C  0.58700323  0.09361666  0.55915220     0.15900
C1366       C  0.60145721  0.10667481  0.57151728    -0.18600
C1367       C  0.56644368  0.08838496  0.56762069    -0.20400
C1368       C  0.55214100  0.07535442  0.55542855    -0.13000
C1369       C  0.55781422  0.06747603  0.53430489     0.03700
C1370       C  0.57836576  0.07292810  0.52554046    -0.25100
H1371       H  0.64418513  0.10722281  0.53549630     0.08800
H1372       H  0.61903246  0.08483949  0.51379231     0.12400
H1373       H  0.59622782  0.11316517  0.58732456     0.12300
H1374       H  0.56146956  0.09421698  0.58377718     0.12100
H1375       H  0.53645121  0.07142502  0.56260081     0.12600
H1376       H  0.58307331  0.06673196  0.50943236     0.14600
C1377       C  0.56521619  0.89278018  0.60011424    -0.05500
C1378       C  0.56804189  0.88745934  0.57775493    -0.05400
C1379       C  0.55964216  0.90117784  0.56119770    -0.23500
C1380       C  0.54853461  0.92062892  0.56688531     0.18700
C1381       C  0.54557622  0.92594801  0.58944438     0.15900
C1382       C  0.55380479  0.91193485  0.60593256    -0.18600
C1383       C  0.53485125  0.94546590  0.59524850    -0.20400
C1384       C  0.52729821  0.95971759  0.57886810    -0.13000
C1385       C  0.53015006  0.95478937  0.55630965     0.03700
C1386       C  0.54069760  0.93500648  0.55040325    -0.25100
H1387       H  0.57695437  0.87273817  0.57307989     0.08800
H1388       H  0.56213332  0.89680778  0.54408892     0.12400
H1389       H  0.55201250  0.91622180  0.62318553     0.12300
H1390       H  0.53249408  0.94981422  0.61240475     0.12100
H1391       H  0.51921578  0.97475327  0.58399863     0.12600
H1392       H  0.54312820  0.93100669  0.53317645     0.14600
C1393       C  0.39837280  0.08303885  0.61054537    -0.05500
C1394       C  0.41978552  0.08140623  0.61858768    -0.05400
C1395       C  0.43622137  0.07198941  0.60553042    -0.23500
C1396       C  0.43131898  0.06377834  0.58439630     0.18700
C1397       C  0.40974787  0.06569484  0.57617449     0.15900
C1398       C  0.39346434  0.07551521  0.58923318    -0.18600
C1399       C  0.40472069  0.05737283  0.55520948    -0.20400
C1400       C  0.42080597  0.04702894  0.54253141    -0.13000
C1401       C  0.44232224  0.04481080  0.55048876     0.03700
C1402       C  0.44747926  0.05341469  0.57148108    -0.25100
H1403       H  0.42368426  0.08720915  0.63505336     0.08800
H1404       H  0.45265078  0.07075775  0.61210809     0.12400
H1405       H  0.37683271  0.07675240  0.58312936     0.12300
H1406       H  0.38827902  0.05870411  0.54866526     0.12100
H1407       H  0.41632096  0.04069820  0.52643014     0.12600
H1408       H  0.46399774  0.05199478  0.57781244     0.14600
C1409       C  0.68356558  0.06535668  0.69342547    -0.05500
C1410       C  0.66194464  0.07344267  0.69452527    -0.05400
C1411       C  0.65334570  0.08696507  0.67805701    -0.23500
C1412       C  0.66607188  0.09289018  0.65990261     0.18700
C1413       C  0.68786420  0.08515779  0.65844669     0.15900
C1414       C  0.69656034  0.07147534  0.67525868    -0.18600
C1415       C  0.70043124  0.09119757  0.64010497    -0.20400
C1416       C  0.69165748  0.10494550  0.62370960    -0.13000
C1417       C  0.67005729  0.11302144  0.62517185     0.03700
C1418       C  0.65732709  0.10657576  0.64331113    -0.25100
H1419       H  0.65141899  0.06917834  0.70819897     0.08800
H1420       H  0.63662630  0.09273559  0.67951550     0.12400
H1421       H  0.71314349  0.06528567  0.67396576     0.12300
H1422       H  0.71710210  0.08535641  0.63845300     0.12100
H1423       H  0.70183762  0.10914063  0.60976763     0.12600
H1424       H  0.64075811  0.11263434  0.64491487     0.14600
C1425       C  0.61379962  0.90877590  0.65448389    -0.05500
C1426       C  0.63495559  0.91303531  0.64691018    -0.05400
C1427       C  0.64771261  0.92890228  0.65733023    -0.23500
C1428       C  0.63940544  0.94072105  0.67541001     0.18700
C1429       C  0.61755311  0.93767155  0.68210325     0.15900
C1430       C  0.60485227  0.92174591  0.67151718    -0.18600
C1431       C  0.60921050  0.94975881  0.70001645    -0.20400
C1432       C  0.62284436  0.96365208  0.71213109    -0.13000
C1433       C  0.64498044  0.96547816  0.70652324     0.03700
C1434       C  0.65293031  0.95463083  0.68763313    -0.25100
H1435       H  0.64207473  0.90320687  0.63380903     0.08800
H1436       H  0.66437640  0.93124508  0.65187883     0.12400
H1437       H  0.58834156  0.91875212  0.67714619     0.12300
H1438       H  0.59240233  0.94779558  0.70519716     0.12100
H1439       H  0.61640156  0.97202456  0.72653192     0.12600
H1440       H  0.66992606  0.95632337  0.68297351     0.14600
C1441       C  0.38371911  0.14365413  0.65234535    -0.05500
C1442       C  0.38080022  0.16380221  0.64148624    -0.05400
C1443       C  0.39305013  0.18218420  0.64773663    -0.23500
C1444       C  0.40874102  0.18054489  0.66465208     0.18700
C1445       C  0.41187069  0.16016088  0.67539026     0.15900
C1446       C  0.39918874  0.14203749  0.66938624    -0.18600
C1447       C  0.42798543  0.15802197  0.69167767    -0.20400
C1448       C  0.44123783  0.17574126  0.69705077    -0.13000
C1449       C  0.43831716  0.19614329  0.68671127     0.03700
C1450       C  0.42176708  0.19862307  0.67068955    -0.25100
H1451       H  0.36884265  0.16541996  0.62843500     0.08800
H1452       H  0.39042151  0.19758645  0.63919152     0.12400
H1453       H  0.40174408  0.12643004  0.67759938     0.12300
H1454       H  0.43066761  0.14248256  0.69994943     0.12100
H1455       H  0.45397867  0.17347876  0.70929575     0.12600
H1456       H  0.41972147  0.21421077  0.66231452     0.14600
C1457       C  0.54595011  0.20892561  0.64300683    -0.05500
C1458       C  0.55113561  0.21612076  0.62160227    -0.05400
C1459       C  0.56757770  0.20576041  0.60937792    -0.23500
C1460       C  0.57934543  0.18808919  0.61835441     0.18700
C1461       C  0.57385479  0.18007393  0.63948814     0.15900
C1462       C  0.55707920  0.19044001  0.65163158    -0.18600
C1463       C  0.58573958  0.16229813  0.64831324    -0.20400
C1464       C  0.60344499  0.15319411  0.63669093    -0.13000
C1465       C  0.60960749  0.16177737  0.61613898     0.03700
C1466       C  0.59700101  0.17882271  0.60681917    -0.25100
H1467       H  0.54279582  0.23012732  0.61444372     0.08800
H1468       H  0.57150462  0.21198520  0.59310341     0.12400
H1469       H  0.55329431  0.18461881  0.66809786     0.12300
H1470       H  0.58170817  0.15581687  0.66445514     0.12100
H1471       H  0.61281872  0.14006501  0.64416663     0.12600
H1472       H  0.60127425  0.18525634  0.59070865     0.14600
C1473       C  0.56319930  0.82639032  0.30496348    -0.05500
C1474       C  0.56320203  0.84553369  0.29220190    -0.05400
C1475       C  0.57627487  0.86325424  0.29821242    -0.23500
C1476       C  0.58907280  0.86229237  0.31744948     0.18700
C1477       C  0.58902495  0.84314316  0.33056928     0.15900
C1478       C  0.57631081  0.82511659  0.32402682    -0.18600
C1479       C  0.60140402  0.84257181  0.35013974    -0.20400
C1480       C  0.61388828  0.86071492  0.35650620    -0.13000
C1481       C  0.61442224  0.87959202  0.34328525     0.03700
C1482       C  0.60175183  0.88027267  0.32385047    -0.25100
H1483       H  0.55303503  0.84674704  0.27757742     0.08800
H1484       H  0.57610792  0.87784332  0.28801378     0.12400
H1485       H  0.57600765  0.81042645  0.33409242     0.12300
H1486       H  0.60146813  0.82808911  0.36048822     0.12100
H1487       H  0.62356637  0.85973602  0.37143490     0.12600
H1488       H  0.60161073  0.89492649  0.31373417     0.14600
C1489       C  0.45991414  0.80305580  0.35213711    -0.05500
C1490       C  0.45553299  0.79584359  0.37371382    -0.05400
C1491       C  0.43961211  0.80639341  0.38659229    -0.23500
C1492       C  0.42774159  0.82428481  0.37808166     0.18700
C1493       C  0.43204971  0.83169185  0.35644816     0.15900
C1494       C  0.44803994  0.82109226  0.34368804    -0.18600
C1495       C  0.42017466  0.84949558  0.34782832    -0.20400
C1496       C  0.40406585  0.85984494  0.36050288    -0.13000
C1497       C  0.39946285  0.85252884  0.38192772     0.03700
C1498       C  0.41147814  0.83475628  0.39069458    -0.25100
H1499       H  0.46434380  0.78199456  0.38061113     0.08800
H1500       H  0.43649270  0.80047719  0.40315389     0.12400
H1501       H  0.45103410  0.82681810  0.32702283     0.12300
H1502       H  0.42318567  0.85527171  0.33119245     0.12100
H1503       H  0.39471363  0.87309864  0.35325109     0.12600
H1504       H  0.40808009  0.82902382  0.40727516     0.14600
C1505       C  0.05023845  0.57165738  0.02866218    -0.05500
C1506       C  0.04053725  0.58915045  0.04037346    -0.05400
C1507       C  0.05321304  0.60331952  0.05309987    -0.23500
C1508       C  0.07587619  0.60041800  0.05421192     0.18700
C1509       C  0.08586211  0.58284391  0.04263574     0.15900
C1510       C  0.07296601  0.56847336  0.03009534    -0.18600
C1511       C  0.10863236  0.58025805  0.04343188    -0.20400
C1512       C  0.12140151  0.59532366  0.05503939    -0.13000
C1513       C  0.11153764  0.61284701  0.06636898     0.03700
C1514       C  0.08878260  0.61514927  0.06621442    -0.25100
H1515       H  0.02305489  0.59187197  0.03979517     0.08800
H1516       H  0.04530714  0.61669193  0.06188299     0.12400
H1517       H  0.08066603  0.55503154  0.02123070     0.12300
H1518       H  0.11658289  0.56689554  0.03468650     0.12100
H1519       H  0.13900062  0.59345793  0.05504276     0.12600
H1520       H  0.08124014  0.62898556  0.07455326     0.14600
C1521       C  0.89468109  0.56858861  0.11243366    -0.05500
C1522       C  0.90403348  0.54809154  0.11778061    -0.05400
C1523       C  0.91700731  0.53669568  0.10247845    -0.23500
C1524       C  0.92103586  0.54561158  0.08153774     0.18700
C1525       C  0.91167851  0.56616354  0.07601712     0.15900
C1526       C  0.89854524  0.57739867  0.09136900    -0.18600
C1527       C  0.91574502  0.57531414  0.05525633    -0.20400
C1528       C  0.92953650  0.56462335  0.04036327    -0.13000
C1529       C  0.93936257  0.54438235  0.04571645     0.03700
C1530       C  0.93462958  0.53465799  0.06621684    -0.25100
H1531       H  0.90148027  0.54088794  0.13389750     0.08800
H1532       H  0.92404622  0.52100906  0.10710715     0.12400
H1533       H  0.89103438  0.59283097  0.08665382     0.12300
H1534       H  0.90863464  0.59099412  0.05069854     0.12100
H1535       H  0.93279456  0.57242139  0.02464771     0.12600
H1536       H  0.94222688  0.51915225  0.07059766     0.14600
C1537       C  0.03469867  0.45823452  0.04053308    -0.05500
C1538       C  0.05599189  0.45147641  0.03480002    -0.05400
C1539       C  0.06765648  0.43677588  0.04804532    -0.23500
C1540       C  0.05839615  0.42865034  0.06749294     0.18700
C1541       C  0.03704160  0.43526305  0.07349704     0.15900
C1542       C  0.02522288  0.44986627  0.05989001    -0.18600
C1543       C  0.02799844  0.42732740  0.09314961    -0.20400
C1544       C  0.03992762  0.41298133  0.10665771    -0.13000
C1545       C  0.06114418  0.40608188  0.10077317     0.03700
C1546       C  0.07022291  0.41411256  0.08105866    -0.25100
H1547       H  0.06370780  0.45757697  0.01995442     0.08800
H1548       H  0.08400344  0.43191118  0.04315767     0.12400
H1549       H  0.00893118  0.45508324  0.06461244     0.12300
H1550       H  0.01174820  0.43235052  0.09818593     0.12100
H1551       H  0.03257476  0.40762261  0.12194687     0.12600
H1552       H  0.08639327  0.40898419  0.07604041     0.14600
C1553       C  0.96797214  0.57933707  0.93698907    -0.05500
C1554       C  0.97519491  0.60103231  0.93948455    -0.05400
C1555       C  0.96615816  0.61792619  0.92668339    -0.23500
C1556       C  0.94933601  0.61348984  0.91157820     0.18700
C1557       C  0.94196878  0.59168706  0.90903192     0.15900
C1558       C  0.95156974  0.57474653  0.92144156    -0.18600
C1559       C  0.92479766  0.58721729  0.89443859    -0.20400
C1560       C  0.91478495  0.60418496  0.88267911    -0.13000
C1561       C  0.92187198  0.62593996  0.88504559     0.03700
C1562       C  0.93943578  0.63047081  0.89931514    -0.25100
H1563       H  0.98786707  0.60490850  0.95134446     0.08800
H1564       H  0.97203440  0.63450764  0.92890152     0.12400
H1565       H  0.94571452  0.55809691  0.91958757     0.12300
H1566       H  0.91896377  0.57061189  0.89226067     0.12100
H1567       H  0.90162834  0.60017602  0.87143500     0.12600
H1568       H  0.94497630  0.64720885  0.90128373     0.14600
C1569       C  0.05085698  0.49007783  0.92712329    -0.05500
C1570       C  0.04833370  0.49585280  0.90480506    -0.05400
C1571       C  0.06099242  0.48562521  0.88849982    -0.23500
C1572       C  0.07588208  0.46898202  0.89421744     0.18700
C1573       C  0.07821446  0.46281058  0.91663343     0.15900
C1574       C  0.06603338  0.47370744  0.93296108    -0.18600
C1575       C  0.09237052  0.44554365  0.92230443    -0.20400
C1576       C  0.10416668  0.43451703  0.90592980    -0.13000
C1577       C  0.10237707  0.44088935  0.88373407     0.03700
C1578       C  0.08827591  0.45820251  0.87792298    -0.25100
H1579       H  0.03655879  0.50830486  0.90000068     0.08800
H1580       H  0.05886137  0.49044955  0.87140339     0.12400
H1581       H  0.06769419  0.46883572  0.95011523     0.12300
H1582       H  0.09423440  0.44050203  0.93936979     0.12100
H1583       H  0.11511595  0.42129676  0.91066242     0.12600
H1584       H  0.08674698  0.46299931  0.86074070     0.14600
C1585       C  0.88637477  0.40091023  0.93911148    -0.05500
C1586       C  0.89189729  0.39839482  0.96163693    -0.05400
C1587       C  0.90693284  0.41236618  0.97188150    -0.23500
C1588       C  0.91699415  0.42909784  0.95983698     0.18700
C1589       C  0.91198523  0.43145599  0.93716422     0.15900
C1590       C  0.89682600  0.41748462  0.92704111    -0.18600
C1591       C  0.92211382  0.44787922  0.92486249    -0.20400
C1592       C  0.93686612  0.46204627  0.93492798    -0.13000
C1593       C  0.94186989  0.46024761  0.95760014     0.03700
C1594       C  0.93189684  0.44353523  0.96998946    -0.25100
H1595       H  0.88489052  0.38543152  0.97144544     0.08800
H1596       H  0.91070886  0.41003873  0.98922496     0.12400
H1597       H  0.89314517  0.41992485  0.90982302     0.12300
H1598       H  0.91854840  0.44986495  0.90742633     0.12100
H1599       H  0.94424271  0.47461768  0.92483070     0.12600
H1600       H  0.93565573  0.44178851  0.98741265     0.14600
C1601       C  0.05004594  0.31704074  0.81956683    -0.05500
C1602       C  0.06134544  0.31362503  0.83954064    -0.05400
C1603       C  0.07598269  0.32910090  0.84753365    -0.23500
C1604       C  0.07950468  0.34849716  0.83585445     0.18700
C1605       C  0.06831626  0.35225818  0.81570404     0.15900
C1606       C  0.05373434  0.33637920  0.80753527    -0.18600
C1607       C  0.07194703  0.37184408  0.80420442    -0.20400
C1608       C  0.08669065  0.38730217  0.81245479    -0.13000
C1609       C  0.09801466  0.38349585  0.83238634     0.03700
C1610       C  0.09416247  0.36409797  0.84403528    -0.25100
H1611       H  0.05895465  0.29878041  0.84901662     0.08800
H1612       H  0.08448679  0.32592077  0.86293392     0.12400
H1613       H  0.04502951  0.33921443  0.79217437     0.12300
H1614       H  0.06346806  0.37517215  0.78882363     0.12100
H1615       H  0.08917379  0.40230148  0.80327087     0.12600
H1616       H  0.10298911  0.36083972  0.85920842     0.14600
C1617       C  0.93912398  0.29079128  0.84809441    -0.05500
C1618       C  0.91764851  0.28298417  0.84694084    -0.05400
C1619       C  0.90061547  0.29452548  0.85684647    -0.23500
C1620       C  0.90471183  0.31429460  0.86779306     0.18700
C1621       C  0.92624062  0.32247818  0.86902165     0.15900
C1622       C  0.94346271  0.31046960  0.85935766    -0.18600
C1623       C  0.92999120  0.34259120  0.87968481    -0.20400
C1624       C  0.91266417  0.35412461  0.88950513    -0.13000
C1625       C  0.89141594  0.34563430  0.88886580     0.03700
C1626       C  0.88754660  0.32591578  0.87760882    -0.25100
H1627       H  0.91402962  0.26793351  0.83815673     0.08800
H1628       H  0.88419108  0.28809760  0.85573636     0.12400
H1629       H  0.95997246  0.31676452  0.85986053     0.12300
H1630       H  0.94632616  0.34924314  0.88067274     0.12100
H1631       H  0.91599428  0.36925484  0.89824877     0.12600
H1632       H  0.87110375  0.31948235  0.87665529     0.14600
C1633       C  0.83953745  0.40089674  0.87774302    -0.05500
C1634       C  0.85229960  0.41965298  0.87425358    -0.05400
C1635       C  0.84746888  0.43434795  0.85724732    -0.23500
C1636       C  0.82956324  0.43082447  0.84332731     0.18700
C1637       C  0.81619827  0.41235116  0.84671386     0.15900
C1638       C  0.82127083  0.39745039  0.86388623    -0.18600
C1639       C  0.79805866  0.40918838  0.83281923    -0.20400
C1640       C  0.79321137  0.42420606  0.81588729    -0.13000
C1641       C  0.80656464  0.44253816  0.81230785     0.03700
C1642       C  0.82479628  0.44560723  0.82616509    -0.25100
H1643       H  0.86595565  0.42326313  0.88482362     0.08800
H1644       H  0.85775732  0.44857146  0.85505378     0.12400
H1645       H  0.81124325  0.38307188  0.86617572     0.12300
H1646       H  0.78756448  0.39514530  0.83509231     0.12100
H1647       H  0.77911101  0.42137514  0.80547308     0.12600
H1648       H  0.83519899  0.45972468  0.82380667     0.14600
C1649       C  0.83472645  0.55538664  0.80153443    -0.05500
C1650       C  0.82307397  0.56362937  0.81976309    -0.05400
C1651       C  0.83144769  0.58078867  0.83244822    -0.23500
C1652       C  0.85129813  0.59045481  0.82663507     0.18700
C1653       C  0.86337873  0.58186360  0.80860590     0.15900
C1654       C  0.85523771  0.56403373  0.79645937    -0.18600
C1655       C  0.88289247  0.59189990  0.80239487    -0.20400
C1656       C  0.88995941  0.61070837  0.81336688    -0.13000
C1657       C  0.87778858  0.61974996  0.83092612     0.03700
C1658       C  0.85879536  0.60910970  0.83792523    -0.25100
H1659       H  0.80717150  0.55711217  0.82382450     0.08800
H1660       H  0.82196852  0.58709129  0.84620495     0.12400
H1661       H  0.86408756  0.55790931  0.78218692     0.12300
H1662       H  0.89244168  0.58550542  0.78873236     0.12100
H1663       H  0.90507672  0.61816328  0.80811900     0.12600
H1664       H  0.84939841  0.61580078  0.85151943     0.14600
C1665       C  0.18502898  0.31984462  0.05822347    -0.05500
C1666       C  0.18544716  0.31265517  0.08024050    -0.05400
C1667       C  0.17018179  0.32062147  0.09543553    -0.23500
C1668       C  0.15455115  0.33625968  0.08894735     0.18700
C1669       C  0.15418973  0.34388081  0.06691387     0.15900
C1670       C  0.16925224  0.33539935  0.05161147    -0.18600
C1671       C  0.13886842  0.35995337  0.06065139    -0.20400
C1672       C  0.12376900  0.36810020  0.07600140    -0.13000
C1673       C  0.12360786  0.36012082  0.09772258     0.03700
C1674       C  0.13926764  0.34438185  0.10414366    -0.25100
H1675       H  0.19752130  0.30075340  0.08565717     0.08800
H1676       H  0.17069688  0.31467130  0.11229392     0.12400
H1677       H  0.16906933  0.34131002  0.03471807     0.12300
H1678       H  0.13845198  0.36608908  0.04385692     0.12100
H1679       H  0.11179863  0.38009394  0.07069968     0.12600
H1680       H  0.13955908  0.33844562  0.12102195     0.14600
C1681       C  0.20020015  0.35877087  0.95112058    -0.05500
C1682       C  0.21032407  0.37767061  0.94285720    -0.05400
C1683       C  0.20056241  0.38993529  0.92601999    -0.23500
C1684       C  0.18046293  0.38356329  0.91705703     0.18700
C1685       C  0.16965216  0.36509600  0.92565669     0.15900
C1686       C  0.17954848  0.35283042  0.94269540    -0.18600
C1687       C  0.14941278  0.35897732  0.91666153    -0.20400
C1688       C  0.14041273  0.37056926  0.89879161    -0.13000
C1689       C  0.15148474  0.38846094  0.88957601     0.03700
C1690       C  0.17127119  0.39516266  0.89932213    -0.25100
H1691       H  0.22616836  0.38265744  0.94895020     0.08800
H1692       H  0.20900441  0.40414011  0.91964805     0.12400
H1693       H  0.17143638  0.33838569  0.94896991     0.12300
H1694       H  0.14074650  0.34497377  0.92316190     0.12100
H1695       H  0.12507844  0.36513992  0.89189206     0.12600
H1696       H  0.17966247  0.40946845  0.89314505     0.14600
C1697       C  0.94497712  0.18715128  0.80182168    -0.05500
C1698       C  0.92405760  0.18756967  0.79226865    -0.05400
C1699       C  0.90841629  0.17222663  0.79831600    -0.23500
C1700       C  0.91326870  0.15639492  0.81434946     0.18700
C1701       C  0.93426612  0.15566133  0.82407423     0.15900
C1702       C  0.95015223  0.17087127  0.81748111    -0.18600
C1703       C  0.93873618  0.14009497  0.84059956    -0.20400
C1704       C  0.92258128  0.12537293  0.84730338    -0.13000
C1705       C  0.90185393  0.12580790  0.83737367     0.03700
C1706       C  0.89731088  0.14147780  0.82098442    -0.25100
H1707       H  0.91967642  0.20006214  0.78031712     0.08800
H1708       H  0.89236887  0.17303273  0.79077453     0.12400
H1709       H  0.96610289  0.17072576  0.82527822     0.12300
H1710       H  0.95467530  0.13934934  0.84836479     0.12100
H1711       H  0.92641303  0.11335741  0.85991380     0.12600
H1712       H  0.88119470  0.14225850  0.81357183     0.14600
C1713       C  0.89343254  0.06409834  0.88370868    -0.05500
C1714       C  0.89955369  0.04225691  0.87887993    -0.05400
C1715       C  0.91136808  0.02967167  0.89416381    -0.23500
C1716       C  0.91773821  0.03875323  0.91444956     0.18700
C1717       C  0.91164651  0.06060996  0.91948616     0.15900
C1718       C  0.89933637  0.07294464  0.90432480    -0.18600
C1719       C  0.91828978  0.06999928  0.93948820    -0.20400
C1720       C  0.93149244  0.05816877  0.95403680    -0.13000
C1721       C  0.93805238  0.03654174  0.94913113     0.03700
C1722       C  0.93062942  0.02666992  0.92949474    -0.25100
H1723       H  0.89558214  0.03487005  0.86312825     0.08800
H1724       H  0.91591477  0.01298159  0.88990499     0.12400
H1725       H  0.89430670  0.08939980  0.90882707     0.12300
H1726       H  0.91373199  0.08671155  0.94365174     0.12100
H1727       H  0.93682835  0.06610763  0.96912261     0.12600
H1728       H  0.93567509  0.01005460  0.92548010     0.14600
C1729       C  0.83799571  0.07432387  0.82241050    -0.05500
C1730       C  0.83831042  0.07695403  0.79921553    -0.05400
C1731       C  0.82170449  0.06817149  0.78601366    -0.23500
C1732       C  0.80440927  0.05672752  0.79565672     0.18700
C1733       C  0.80444314  0.05331018  0.81874485     0.15900
C1734       C  0.82126605  0.06174583  0.83176659    -0.18600
C1735       C  0.78732874  0.04200290  0.82866101    -0.20400
C1736       C  0.77004166  0.03444553  0.81591800    -0.13000
C1737       C  0.76946181  0.03796831  0.79292172     0.03700
C1738       C  0.78689849  0.04897240  0.78279378    -0.25100
H1739       H  0.85098766  0.08590005  0.79095017     0.08800
H1740       H  0.82216375  0.07073955  0.76829548     0.12400
H1741       H  0.82091727  0.05927398  0.84952159     0.12300
H1742       H  0.78712747  0.03928082  0.84636473     0.12100
H1743       H  0.75690429  0.02604945  0.82425687     0.12600
H1744       H  0.78675093  0.05166482  0.76508347     0.14600
C1745       C  0.06869351  0.89314106  0.89718090    -0.05500
C1746       C  0.08205797  0.90127277  0.91422429    -0.05400
C1747       C  0.07382349  0.91585114  0.92998236    -0.23500
C1748       C  0.05189569  0.92241232  0.92934717     0.18700
C1749       C  0.03790564  0.91371418  0.91299713     0.15900
C1750       C  0.04638884  0.89916605  0.89694518    -0.18600
C1751       C  0.01579342  0.92002499  0.91286877    -0.20400
C1752       C  0.00780183  0.93512183  0.92848228    -0.13000
C1753       C  0.02182048  0.94437880  0.94436865     0.03700
C1754       C  0.04384459  0.93767135  0.94475784    -0.25100
H1755       H  0.09899981  0.89634191  0.91556942     0.08800
H1756       H  0.08468295  0.92207373  0.94265541     0.12400
H1757       H  0.03577369  0.89309487  0.88400309     0.12300
H1758       H  0.00472159  0.91343494  0.90058835     0.12100
H1759       H  0.99074189  0.93986519  0.92785454     0.12600
H1760       H  0.05482785  0.94436437  0.95707886     0.14600
C1761       C  0.87662961  0.90162288  0.06299933    -0.05500
C1762       C  0.86998943  0.91237935  0.04354283    -0.05400
C1763       C  0.88444106  0.92583730  0.03200804    -0.23500
C1764       C  0.90584108  0.92877253  0.03968446     0.18700
C1765       C  0.91259128  0.91819023  0.05935811     0.15900
C1766       C  0.89800135  0.90470674  0.07082914    -0.18600
C1767       C  0.93385640  0.92124255  0.06724998    -0.20400
C1768       C  0.94820188  0.93493373  0.05599876    -0.13000
C1769       C  0.94173018  0.94560963  0.03643194     0.03700
C1770       C  0.92053877  0.94224170  0.02818789    -0.25100
H1771       H  0.85355969  0.91041887  0.03725088     0.08800
H1772       H  0.87888496  0.93391443  0.01706427     0.12400
H1773       H  0.90352174  0.89618915  0.08554339     0.12300
H1774       H  0.93932334  0.91325247  0.08228290     0.12100
H1775       H  0.96443532  0.93727355  0.06269473     0.12600
H1776       H  0.91529155  0.95062238  0.01328892     0.14600
C1777       C  0.96292819  0.05804284  0.05989307    -0.05500
C1778       C  0.94769690  0.05002649  0.07517509    -0.05400
C1779       C  0.93647879  0.06435738  0.08922201    -0.23500
C1780       C  0.94061851  0.08691426  0.08851218     0.18700
C1781       C  0.95621558  0.09512182  0.07348692     0.15900
C1782       C  0.96703060  0.08066375  0.05903200    -0.18600
C1783       C  0.96079800  0.11763165  0.07328869    -0.20400
C1784       C  0.95002068  0.13187003  0.08783582    -0.13000
C1785       C  0.93421646  0.12386828  0.10246491     0.03700
C1786       C  0.92953753  0.10137750  0.10268689    -0.25100
H1787       H  0.94413574  0.03266576  0.07594767     0.08800
H1788       H  0.92462009  0.05779524  0.10067346     0.12400
H1789       H  0.97883146  0.08694164  0.04734719     0.12300
H1790       H  0.97276966  0.12419721  0.06196879     0.12100
H1791       H  0.95376625  0.14919766  0.08743733     0.12600
H1792       H  0.91760138  0.09508422  0.11423048     0.14600
C1793       C  0.09700327  0.94259512  0.12422674    -0.05500
C1794       C  0.08243636  0.95844004  0.13258349    -0.05400
C1795       C  0.06810377  0.96958321  0.11837071    -0.23500
C1796       C  0.06848533  0.96535963  0.09553769     0.18700
C1797       C  0.08359460  0.94988212  0.08701577     0.15900
C1798       C  0.09749246  0.93840776  0.10143215    -0.18600
C1799       C  0.08455883  0.94608692  0.06419661    -0.20400
C1800       C  0.07045177  0.95722889  0.04990020    -0.13000
C1801       C  0.05483660  0.97209965  0.05815995     0.03700
C1802       C  0.05399853  0.97618425  0.08107244    -0.25100
H1803       H  0.08187283  0.96185799  0.15014929     0.08800
H1804       H  0.05674179  0.98147839  0.12521970     0.12400
H1805       H  0.10896447  0.92642532  0.09488909     0.12300
H1806       H  0.09613674  0.93437062  0.05740284     0.12100
H1807       H  0.07130834  0.95367683  0.03237455     0.12600
H1808       H  0.04208799  0.98771771  0.08761437     0.14600
C1809       C  0.10349149  0.16017496  0.88824521    -0.05500
C1810       C  0.09548343  0.14941531  0.86937577    -0.05400
C1811       C  0.07899265  0.15902026  0.85647257    -0.23500
C1812       C  0.07015308  0.17956907  0.86222538     0.18700
C1813       C  0.07764132  0.19023646  0.88151373     0.15900
C1814       C  0.09414802  0.18047594  0.89439713    -0.18600
C1815       C  0.06875486  0.21068458  0.88741514    -0.20400
C1816       C  0.05290592  0.22072408  0.87410970    -0.13000
C1817       C  0.04563857  0.21059034  0.85456314     0.03700
C1818       C  0.05424984  0.18980919  0.84885382    -0.25100
H1819       H  0.10244891  0.13388880  0.86414286     0.08800
H1820       H  0.07342135  0.15054286  0.84177420     0.12400
H1821       H  0.09978734  0.18878188  0.90917358     0.12300
H1822       H  0.07429222  0.21908194  0.90217587     0.12100
H1823       H  0.04670315  0.23671818  0.87888804     0.12600
H1824       H  0.04879478  0.18171265  0.83388379     0.14600
C1825       C  0.05075102  0.06106907  0.97075059    -0.05500
C1826       C  0.04168577  0.07683204  0.95642192    -0.05400
C1827       C  0.05491351  0.09206861  0.94569609    -0.23500
C1828       C  0.07749891  0.09224574  0.94944328     0.18700
C1829       C  0.08678415  0.07713918  0.96455469     0.15900
C1830       C  0.07341010  0.06137842  0.97484670    -0.18600
C1831       C  0.10929338  0.07803716  0.96894172    -0.20400
C1832       C  0.12247813  0.09336510  0.95812032    -0.13000
C1833       C  0.11352168  0.10777319  0.94235986     0.03700
C1834       C  0.09094392  0.10719097  0.93821984    -0.25100
H1835       H  0.02431900  0.07697696  0.95300321     0.08800
H1836       H  0.04746588  0.10365827  0.93435940     0.12400
H1837       H  0.08055221  0.04951448  0.98610453     0.12300
H1838       H  0.11672935  0.06680163  0.98063778     0.12100
H1839       H  0.13982686  0.09355594  0.96159763     0.12600
H1840       H  0.08383301  0.11849914  0.92636852     0.14600
C1841       C  0.17137586  0.16702526  0.93467894    -0.05500
C1842       C  0.19421599  0.16652252  0.93135095    -0.05400
C1843       C  0.20748943  0.18361920  0.93893903    -0.23500
C1844       C  0.19835189  0.20174700  0.94990763     0.18700
C1845       C  0.17573587  0.20192921  0.95439630     0.15900
C1846       C  0.16263318  0.18438665  0.94741176    -0.18600
C1847       C  0.16637655  0.22003278  0.96512605    -0.20400
C1848       C  0.17919043  0.23793769  0.97108449    -0.13000
C1849       C  0.20177812  0.23816923  0.96669506     0.03700
C1850       C  0.21131198  0.21979047  0.95620314    -0.25100
H1851       H  0.20219453  0.15324350  0.92272880     0.08800
H1852       H  0.22487249  0.18291216  0.93569019     0.12400
H1853       H  0.14523050  0.18491969  0.95066046     0.12300
H1854       H  0.14903974  0.22050088  0.96865326     0.12100
H1855       H  0.17127695  0.25167381  0.97923232     0.12600
H1856       H  0.22867442  0.21958293  0.95277771     0.14600
C1857       C  0.33824983  0.07512562  0.66705541    -0.05500
C1858       C  0.33235250  0.05399861  0.65975286    -0.05400
C1859       C  0.31704790  0.04158074  0.67123140    -0.23500
C1860       C  0.30679595  0.05020052  0.69002376     0.18700
C1861       C  0.31287935  0.07108641  0.69796865     0.15900
C1862       C  0.32848309  0.08338757  0.68649890    -0.18600
C1863       C  0.30250121  0.07979245  0.71670460    -0.20400
C1864       C  0.28573474  0.06826203  0.72699765    -0.13000
C1865       C  0.27890157  0.04790019  0.71864640     0.03700
C1866       C  0.28986908  0.03873069  0.70039488    -0.25100
H1867       H  0.33887388  0.04742340  0.64447299     0.08800
H1868       H  0.31255935  0.02561398  0.66485153     0.12400
H1869       H  0.33173580  0.09987513  0.69210039     0.12300
H1870       H  0.30700062  0.09574912  0.72310365     0.12100
H1871       H  0.27764737  0.07562529  0.74111269     0.12600
H1872       H  0.28494238  0.02289866  0.69398151     0.14600
C1873       C  0.19200363  0.06333123  0.81447174    -0.05500
C1874       C  0.20641959  0.08008309  0.82075165    -0.05400
C1875       C  0.20084847  0.09495816  0.83748832    -0.23500
C1876       C  0.18089291  0.09316850  0.84868044     0.18700
C1877       C  0.16639795  0.07620899  0.84290519     0.15900
C1878       C  0.17188198  0.06156106  0.82565013    -0.18600
C1879       C  0.14676238  0.07413731  0.85461709    -0.20400
C1880       C  0.14155471  0.08867488  0.87185779    -0.13000
C1881       C  0.15561722  0.10598252  0.87759019     0.03700
C1882       C  0.17529831  0.10806815  0.86557724    -0.25100
H1883       H  0.22198893  0.08186557  0.81250869     0.08800
H1884       H  0.21224670  0.10779612  0.84177864     0.12400
H1885       H  0.16068709  0.04858727  0.82120357     0.12300
H1886       H  0.13549843  0.06109632  0.85060842     0.12100
H1887       H  0.12655495  0.08600500  0.88078914     0.12600
H1888       H  0.18634539  0.12140211  0.86897312     0.14600
C1889       C  0.11149126  0.90324495  0.83583600    -0.05500
C1890       C  0.10008852  0.91310649  0.81819630    -0.05400
C1891       C  0.10964863  0.92972520  0.80566714    -0.23500
C1892       C  0.13098507  0.93653628  0.81027955     0.18700
C1893       C  0.14227410  0.92720984  0.82846614     0.15900
C1894       C  0.13229996  0.91097264  0.84136417    -0.18600
C1895       C  0.16376769  0.93350949  0.83284668    -0.20400
C1896       C  0.17437286  0.94800123  0.81874014    -0.13000
C1897       C  0.16360313  0.95692697  0.80024233     0.03700
C1898       C  0.14158960  0.95172132  0.79648743    -0.25100
H1899       H  0.08380532  0.90773000  0.81390146     0.08800
H1900       H  0.10062747  0.93671631  0.79193579     0.12400
H1901       H  0.14122441  0.90351974  0.85487475     0.12300
H1902       H  0.17265173  0.92663312  0.84673111     0.12100
H1903       H  0.19125666  0.95201640  0.82212224     0.12600
H1904       H  0.13318311  0.95846828  0.78223192     0.14600
C1905       C  0.78185428  0.27465429  0.95608637    -0.05500
C1906       C  0.77362397  0.28304573  0.93608773    -0.05400
C1907       C  0.78256269  0.30196956  0.92667848    -0.23500
C1908       C  0.79959213  0.31313349  0.93735194     0.18700
C1909       C  0.80745132  0.30515206  0.95779786     0.15900
C1910       C  0.79873453  0.28591744  0.96689786    -0.18600
C1911       C  0.82438387  0.31613999  0.96854147    -0.20400
C1912       C  0.83412543  0.33430236  0.95876471    -0.13000
C1913       C  0.82685683  0.34252468  0.93819139     0.03700
C1914       C  0.80940462  0.33162669  0.92761265    -0.25100
H1915       H  0.76054430  0.27470469  0.92750864     0.08800
H1916       H  0.77624166  0.30778941  0.91100088     0.12400
H1917       H  0.80500141  0.27977032  0.98249145     0.12300
H1918       H  0.83075276  0.31013432  0.98413610     0.12100
H1919       H  0.84831209  0.34101480  0.96690853     0.12600
H1920       H  0.80421900  0.33673089  0.91128588     0.14600
C1921       C  0.81185712  0.20155155  0.05573575    -0.05500
C1922       C  0.81095938  0.21123272  0.07681222    -0.05400
C1923       C  0.82613332  0.20548941  0.09313677    -0.23500
C1924       C  0.84215920  0.18949931  0.08888215     0.18700
C1925       C  0.84306415  0.17941136  0.06782940     0.15900
C1926       C  0.82814950  0.18577484  0.05126140    -0.18600
C1927       C  0.85864761  0.16289091  0.06385781    -0.20400
C1928       C  0.87327512  0.15655223  0.08050099    -0.13000
C1929       C  0.87280919  0.16679459  0.10132271     0.03700
C1930       C  0.85714660  0.18329256  0.10539218    -0.25100
H1931       H  0.79843815  0.22327353  0.08066495     0.08800
H1932       H  0.82511293  0.21330855  0.10920388     0.12400
H1933       H  0.82867257  0.17787215  0.03519894     0.12300
H1934       H  0.85953474  0.15487802  0.04788084     0.12100
H1935       H  0.88535438  0.14400153  0.07687395     0.12600
H1936       H  0.85646682  0.19111258  0.12148518     0.14600
C1937       C  0.79804241  0.15396706  0.94974475    -0.05500
C1938       C  0.79039861  0.13270862  0.94516864    -0.05400
C1939       C  0.80064848  0.11946975  0.92939506    -0.23500
C1940       C  0.81885906  0.12711623  0.91786002     0.18700
C1941       C  0.82726513  0.14811742  0.92270245     0.15900
C1942       C  0.81677945  0.16145083  0.93859244    -0.18600
C1943       C  0.84577708  0.15548414  0.91126145    -0.20400
C1944       C  0.85551389  0.14236535  0.89488766    -0.13000
C1945       C  0.84669260  0.12186727  0.88948594     0.03700
C1946       C  0.82853334  0.11422477  0.90127184    -0.25100
H1947       H  0.77611256  0.12639545  0.95346027     0.08800
H1948       H  0.79410233  0.10334243  0.92597777     0.12400
H1949       H  0.82295446  0.17773956  0.94194041     0.12300
H1950       H  0.85254341  0.17149035  0.91477036     0.12100
H1951       H  0.86948065  0.14851881  0.88593106     0.12600
H1952       H  0.82182721  0.09825929  0.89736252     0.14600
C1953       C  0.04933097  0.81958862  0.20074725    -0.05500
C1954       C  0.07012504  0.81830367  0.21057509    -0.05400
C1955       C  0.08637501  0.83336280  0.20511860    -0.23500
C1956       C  0.08228037  0.84981374  0.18944275     0.18700
C1957       C  0.06147621  0.85123300  0.17937437     0.15900
C1958       C  0.04508273  0.83631018  0.18527043    -0.18600
C1959       C  0.05752418  0.86736680  0.16333313    -0.20400
C1960       C  0.07401086  0.88192698  0.15728693    -0.13000
C1961       C  0.09469023  0.88082860  0.16731924     0.03700
C1962       C  0.09868331  0.86472152  0.18350077    -0.25100
H1963       H  0.07386934  0.80556536  0.22247184     0.08800
H1964       H  0.10223730  0.83196685  0.21296528     0.12400
H1965       H  0.02923288  0.83732920  0.17732076     0.12300
H1966       H  0.04169043  0.86869923  0.15541583     0.12100
H1967       H  0.07042505  0.89437036  0.14503451     0.12600
H1968       H  0.11464332  0.86357055  0.19119461     0.14600
C1969       C  0.93242087  0.69618301  0.19362431    -0.05500
C1970       C  0.91369843  0.69274696  0.20657393    -0.05400
C1971       C  0.89931126  0.67554018  0.20159566    -0.23500
C1972       C  0.90360616  0.66121240  0.18383455     0.18700
C1973       C  0.92260133  0.66439590  0.17106536     0.15900
C1974       C  0.93662366  0.68186511  0.17584648    -0.18600
C1975       C  0.92746063  0.64996131  0.15373380    -0.20400
C1976       C  0.91348951  0.63270058  0.14873411    -0.13000
C1977       C  0.89400364  0.62965449  0.16057711     0.03700
C1978       C  0.88931222  0.64388007  0.17845837    -0.25100
H1979       H  0.91005423  0.70351002  0.22036122     0.08800
H1980       H  0.88487871  0.67340026  0.21167579     0.12400
H1981       H  0.95110715  0.68408604  0.16583240     0.12300
H1982       H  0.94215964  0.65198291  0.14401624     0.12100
H1983       H  0.91811429  0.62168012  0.13548726     0.12600
H1984       H  0.87438983  0.64185441  0.18779781     0.14600
C1985       C  0.94547708  0.79973242  0.14810263    -0.05500
C1986       C  0.94061889  0.79110922  0.12711405    -0.05400
C1987       C  0.92570665  0.80178955  0.11323166    -0.23500
C1988       C  0.91525191  0.82114539  0.12020948     0.18700
C1989       C  0.92051649  0.83031281  0.14096403     0.15900
C1990       C  0.93568185  0.81967362  0.15466763    -0.18600
C1991       C  0.91001492  0.84962060  0.14797983    -0.20400
C1992       C  0.89369637  0.85921952  0.13497775    -0.13000
C1993       C  0.88763476  0.84973121  0.11477809     0.03700
C1994       C  0.89906382  0.83105650  0.10714629    -0.25100
H1995       H  0.94804834  0.77590026  0.12156640     0.08800
H1996       H  0.92192994  0.79460901  0.09729022     0.12400
H1997       H  0.93930707  0.82662626  0.17075428     0.12300
H1998       H  0.91395007  0.85691518  0.16382418     0.12100
H1999       H  0.88523190  0.87352751  0.14123305     0.12600
H2000       H  0.89497098  0.82387391  0.09128072     0.14600
C2001       C  0.04737939  0.72009853  0.15642796    -0.05500
C2002       C  0.06731686  0.73110950  0.15452195    -0.05400
C2003       C  0.08488735  0.72138058  0.14366258    -0.23500
C2004       C  0.08294915  0.70025422  0.13485158     0.18700
C2005       C  0.06295295  0.68893236  0.13655476     0.15900
C2006       C  0.04505610  0.69910672  0.14710524    -0.18600
C2007       C  0.06150076  0.66751729  0.12811853    -0.20400
C2008       C  0.07955616  0.65763267  0.11780574    -0.13000
C2009       C  0.09925892  0.66909914  0.11549951     0.03700
C2010       C  0.10083832  0.69029007  0.12450522    -0.25100
H2011       H  0.06934620  0.74726293  0.16171395     0.08800
H2012       H  0.10011713  0.73024772  0.14248485     0.12400
H2013       H  0.02976675  0.69043816  0.14889785     0.12300
H2014       H  0.04641582  0.65843927  0.12945402     0.12100
H2015       H  0.07787900  0.64122468  0.11126156     0.12600
H2016       H  0.11611607  0.69910304  0.12362716     0.14600
C2017       C  0.71070143  0.15344807  0.04969768    -0.05500
C2018       C  0.71420691  0.13067032  0.04916976    -0.05400
C2019       C  0.70319922  0.11698087  0.06383990    -0.23500
C2020       C  0.68825621  0.12583955  0.07901929     0.18700
C2021       C  0.68404487  0.14866236  0.07915994     0.15900
C2022       C  0.69544162  0.16232765  0.06465168    -0.18600
C2023       C  0.66871637  0.15744846  0.09401258    -0.20400
C2024       C  0.65809907  0.14380619  0.10902870    -0.13000
C2025       C  0.66287767  0.12129120  0.10957193     0.03700
C2026       C  0.67773970  0.11232655  0.09431999    -0.25100
H2027       H  0.72586952  0.12350177  0.03776907     0.08800
H2028       H  0.70651339  0.09950451  0.06344726     0.12400
H2029       H  0.69241751  0.17987013  0.06497792     0.12300
H2030       H  0.66521433  0.17489155  0.09425697     0.12100
H2031       H  0.64681065  0.15097034  0.12081727     0.12600
H2032       H  0.68129824  0.09488215  0.09459430     0.14600
C2033       C  0.55475071  0.03327873  0.06670483    -0.05500
C2034       C  0.56949620  0.01801367  0.07595270    -0.05400
C2035       C  0.58514112  0.02461389  0.09140393    -0.23500
C2036       C  0.58625374  0.04658539  0.09814768     0.18700
C2037       C  0.57098480  0.06188604  0.08968994     0.15900
C2038       C  0.55541178  0.05520036  0.07397892    -0.18600
C2039       C  0.57180949  0.08371292  0.09679814    -0.20400
C2040       C  0.58796318  0.09050083  0.11159382    -0.13000
C2041       C  0.60396823  0.07572359  0.11950505     0.03700
C2042       C  0.60266624  0.05357139  0.11280733    -0.25100
H2043       H  0.56936244  0.00100231  0.07078250     0.08800
H2044       H  0.59658725  0.01256618  0.09783319     0.12400
H2045       H  0.54401520  0.06712328  0.06722151     0.12300
H2046       H  0.56004942  0.09564900  0.09074668     0.12100
H2047       H  0.58772082  0.10747787  0.11659918     0.12600
H2048       H  0.61476781  0.04175139  0.11827254     0.14600
C2049       C  0.60724893  0.11266869  0.84062071    -0.05500
C2050       C  0.59533464  0.10175408  0.82405822    -0.05400
C2051       C  0.60453877  0.08434485  0.81227621    -0.23500
C2052       C  0.62592617  0.07747562  0.81673500     0.18700
C2053       C  0.63775397  0.08752488  0.83409834     0.15900
C2054       C  0.62822774  0.10496256  0.84615419    -0.18600
C2055       C  0.65916442  0.08046297  0.83846633    -0.20400
C2056       C  0.66896828  0.06423597  0.82530112    -0.13000
C2057       C  0.65758030  0.05473028  0.80746358     0.03700
C2058       C  0.63585113  0.06119742  0.80362078    -0.25100
H2059       H  0.57893694  0.10706717  0.81985270     0.08800
H2060       H  0.59512375  0.07666682  0.79923354     0.12400
H2061       H  0.63750119  0.11323555  0.85892851     0.12300
H2062       H  0.66851468  0.08784288  0.85173026     0.12100
H2063       H  0.68571769  0.05955896  0.82873948     0.12600
H2064       H  0.62678284  0.05393500  0.79008271     0.14600
C2065       C  0.62286603  0.17048016  0.89305174    -0.05500
C2066       C  0.62087293  0.19164637  0.90233450    -0.05400
C2067       C  0.63722619  0.20033800  0.91573655    -0.23500
C2068       C  0.65590405  0.18797428  0.92062269     0.18700
C2069       C  0.65796128  0.16644286  0.91198931     0.15900
C2070       C  0.64143547  0.15779828  0.89824600    -0.18600
C2071       C  0.67652138  0.15397877  0.91731563    -0.20400
C2072       C  0.69257278  0.16256920  0.93130162    -0.13000
C2073       C  0.69064382  0.18395092  0.94009707     0.03700
C2074       C  0.67232349  0.19668346  0.93435087    -0.25100
H2075       H  0.60650774  0.20163950  0.89930008     0.08800
H2076       H  0.63517214  0.21673647  0.92239581     0.12400
H2077       H  0.64324905  0.14149218  0.89129650     0.12300
H2078       H  0.67851351  0.13747695  0.91089701     0.12100
H2079       H  0.70654672  0.15234737  0.93533857     0.12600
H2080       H  0.67049428  0.21307455  0.94110846     0.14600
C2081       C  0.56204677  0.12631842  0.89764805    -0.05500
C2082       C  0.54688904  0.13530009  0.91262183    -0.05400
C2083       C  0.53742300  0.12222574  0.92904035    -0.23500
C2084       C  0.54256571  0.09977755  0.93050331     0.18700
C2085       C  0.55737437  0.09050089  0.91512751     0.15900
C2086       C  0.56721248  0.10385021  0.89905231    -0.18600
C2087       C  0.56198102  0.06796774  0.91596329    -0.20400
C2088       C  0.55196516  0.05470004  0.93174809    -0.13000
C2089       C  0.53747534  0.06367921  0.94740910     0.03700
C2090       C  0.53300136  0.08638211  0.94683008    -0.25100
H2091       H  0.54270738  0.15257113  0.91189679     0.08800
H2092       H  0.52601188  0.12966200  0.94053872     0.12400
H2093       H  0.57861859  0.09667569  0.88736006     0.12300
H2094       H  0.57319826  0.06054081  0.90425920     0.12100
H2095       H  0.55573853  0.03731406  0.93184820     0.12600
H2096       H  0.52167636  0.09346735  0.95864603     0.14600
C2097       C  0.52993839  0.21188056  0.76364365    -0.05500
C2098       C  0.52444162  0.18952491  0.76502655    -0.05400
C2099       C  0.53056504  0.17695489  0.78332632    -0.23500
C2100       C  0.54244507  0.18639176  0.80065577     0.18700
C2101       C  0.54759160  0.20891968  0.79980067     0.15900
C2102       C  0.54124831  0.22156687  0.78138944    -0.18600
C2103       C  0.55928895  0.21831843  0.81725166    -0.20400
C2104       C  0.56716152  0.20529218  0.83455798    -0.13000
C2105       C  0.56376462  0.18237120  0.83475744     0.03700
C2106       C  0.55002458  0.17345900  0.81834446    -0.25100
H2107       H  0.51547747  0.18160480  0.75183124     0.08800
H2108       H  0.52636127  0.15972400  0.78370720     0.12400
H2109       H  0.54539182  0.23881326  0.78076398     0.12300
H2110       H  0.56285099  0.23570743  0.81726269     0.12100
H2111       H  0.57605454  0.21355108  0.84745225     0.12600
H2112       H  0.54650799  0.15605270  0.81852301     0.14600
C2113       C  0.38556311  0.10887793  0.07110726    -0.05500
C2114       C  0.38629684  0.08787179  0.08051230    -0.05400
C2115       C  0.40031840  0.07170596  0.07206255    -0.23500
C2116       C  0.41436829  0.07647079  0.05446447     0.18700
C2117       C  0.41433003  0.09781667  0.04536376     0.15900
C2118       C  0.39970225  0.11376060  0.05350458    -0.18600
C2119       C  0.42912423  0.10290612  0.02848649    -0.20400
C2120       C  0.44391786  0.08705078  0.02082220    -0.13000
C2121       C  0.44373733  0.06565829  0.02940375     0.03700
C2122       C  0.42874126  0.06039871  0.04609633    -0.25100
H2123       H  0.37579232  0.08379240  0.09411409     0.08800
H2124       H  0.40029273  0.05552156  0.07943534     0.12400
H2125       H  0.39961237  0.13009820  0.04646058     0.12300
H2126       H  0.42945824  0.11922057  0.02142831     0.12100
H2127       H  0.45541873  0.09143434  0.00801317     0.12600
H2128       H  0.42878939  0.04402744  0.05306242     0.14600
C2129       C  0.28431159  0.23815083  0.04001866    -0.05500
C2130       C  0.28368052  0.23746389  0.06328158    -0.05400
C2131       C  0.29490961  0.22120606  0.07495614    -0.23500
C2132       C  0.30697230  0.20516633  0.06366064     0.18700
C2133       C  0.30737667  0.20525276  0.04032685     0.15900
C2134       C  0.29607762  0.22175411  0.02860974    -0.18600
C2135       C  0.31935104  0.18901133  0.02916794    -0.20400
C2136       C  0.33115895  0.17312412  0.04095873    -0.13000
C2137       C  0.33131551  0.17311659  0.06430491     0.03700
C2138       C  0.31888225  0.18925476  0.07538996    -0.25100
H2139       H  0.27476809  0.24977484  0.07259776     0.08800
H2140       H  0.29434145  0.22133409  0.09286155     0.12400
H2141       H  0.29663939  0.22194283  0.01070358     0.12300
H2142       H  0.31980687  0.18872873  0.01126198     0.12100
H2143       H  0.34029467  0.16130527  0.03143242     0.12600
H2144       H  0.31877619  0.18958108  0.09331667     0.14600
C2145       C  0.47057550  0.94508774  0.05459739    -0.05500
C2146       C  0.48360392  0.92636969  0.05849183    -0.05400
C2147       C  0.47594915  0.90911002  0.07153472    -0.23500
C2148       C  0.45524358  0.91036945  0.08134371     0.18700
C2149       C  0.44209032  0.92917377  0.07767074     0.15900
C2150       C  0.44967057  0.94622967  0.06409973    -0.18600
C2151       C  0.42168938  0.93078784  0.08793122    -0.20400
C2152       C  0.41432733  0.91401067  0.10165536    -0.13000
C2153       C  0.42691001  0.89488026  0.10511235     0.03700
C2154       C  0.44752671  0.89326984  0.09486516    -0.25100
H2155       H  0.49971034  0.92497491  0.05124211     0.08800
H2156       H  0.48632304  0.89486990  0.07411492     0.12400
H2157       H  0.43950602  0.96060090  0.06135017     0.12300
H2158       H  0.41150619  0.94520938  0.08560144     0.12100
H2159       H  0.39883311  0.91639537  0.10986948     0.12600
H2160       H  0.45750848  0.87872275  0.09723358     0.14600
C2161       C  0.43190816  0.83269286  0.16213471    -0.05500
C2162       C  0.43204256  0.80951242  0.16094521    -0.05400
C2163       C  0.44088801  0.79683957  0.17803494    -0.23500
C2164       C  0.44997359  0.80689606  0.19666478     0.18700
C2165       C  0.45134299  0.83000528  0.19741557     0.15900
C2166       C  0.44293004  0.84263656  0.17994822    -0.18600
C2167       C  0.46044116  0.84017731  0.21598320    -0.20400
C2168       C  0.46802820  0.82760810  0.23368239    -0.13000
C2169       C  0.46677132  0.80454382  0.23322317     0.03700
C2170       C  0.45767388  0.79427858  0.21454725    -0.25100
H2171       H  0.42517146  0.80072069  0.14720387     0.08800
H2172       H  0.44016192  0.77911110  0.17687135     0.12400
H2173       H  0.44355982  0.86038623  0.18096146     0.12300
H2174       H  0.46156335  0.85789176  0.21690271     0.12100
H2175       H  0.47500909  0.83604388  0.24775667     0.12600
H2176       H  0.45675142  0.77653672  0.21382325     0.14600
C2177       C  0.66128425  0.90070898  0.87495020    -0.05500
C2178       C  0.66260918  0.92273242  0.88147025    -0.05400
C2179       C  0.66995880  0.93865300  0.86670129    -0.23500
C2180       C  0.67588988  0.93278494  0.84507329     0.18700
C2181       C  0.67427423  0.91064070  0.83827164     0.15900
C2182       C  0.66704796  0.89467929  0.85332447    -0.18600
C2183       C  0.67981379  0.90491243  0.81651492    -0.20400
C2184       C  0.68695408  0.92090671  0.80165864    -0.13000
C2185       C  0.68887960  0.94295155  0.80827879     0.03700
C2186       C  0.68326314  0.94871677  0.83012065    -0.25100
H2187       H  0.65795910  0.92757263  0.89806048     0.08800
H2188       H  0.67093298  0.95555459  0.87216746     0.12400
H2189       H  0.66573032  0.87767621  0.84824348     0.12300
H2190       H  0.67855448  0.88806379  0.81095253     0.12100
H2191       H  0.69098071  0.91598373  0.78493977     0.12600
H2192       H  0.68435389  0.96565984  0.83545349     0.14600
C2193       C  0.55997304  0.95128744  0.97573424    -0.05500
C2194       C  0.56782341  0.93444817  0.98950537    -0.05400
C2195       C  0.58204159  0.91845731  0.98124840    -0.23500
C2196       C  0.58891258  0.91925135  0.95918125     0.18700
C2197       C  0.58156965  0.93640769  0.94535225     0.15900
C2198       C  0.56701745  0.95221338  0.95364835    -0.18600
C2199       C  0.58891402  0.93746302  0.92346502    -0.20400
C2200       C  0.60353822  0.92172012  0.91537526    -0.13000
C2201       C  0.61073009  0.90434631  0.92886937     0.03700
C2202       C  0.60303644  0.90316530  0.95076544    -0.25100
H2203       H  0.56262081  0.93336419  0.00656770     0.08800
H2204       H  0.58764776  0.90547083  0.99211277     0.12400
H2205       H  0.56121676  0.96523305  0.94291528     0.12300
H2206       H  0.58356909  0.95062097  0.91268234     0.12100
H2207       H  0.60942727  0.92350993  0.89864677     0.12600
H2208       H  0.60778489  0.88965969  0.96135701     0.14600
C2209       C  0.39666181  0.93437323  0.89427346    -0.05500
C2210       C  0.39024683  0.93223338  0.91638812    -0.05400
C2211       C  0.40197719  0.94237870  0.93333116    -0.23500
C2212       C  0.42036774  0.95500408  0.92842799     0.18700
C2213       C  0.42693742  0.95741417  0.90615564     0.15900
C2214       C  0.41492678  0.94721332  0.88916114    -0.18600
C2215       C  0.44546757  0.96987998  0.90132867    -0.20400
C2216       C  0.45745276  0.97968237  0.91836524    -0.13000
C2217       C  0.45102455  0.97749695  0.94057931     0.03700
C2218       C  0.43230192  0.96518558  0.94544097    -0.25100
H2219       H  0.37571923  0.92322181  0.92054063     0.08800
H2220       H  0.39657723  0.94045920  0.95025240     0.12400
H2221       H  0.41986247  0.94902435  0.87206732     0.12300
H2222       H  0.45080775  0.97190142  0.88439913     0.12100
H2223       H  0.47182597  0.98901530  0.91412537     0.12600
H2224       H  0.42729457  0.96310558  0.96247776     0.14600
C2225       C  0.28211998  0.97675347  0.79580149    -0.05500
C2226       C  0.29281169  0.99032461  0.81114856    -0.05400
C2227       C  0.31135606  0.98290710  0.82235175    -0.23500
C2228       C  0.31960897  0.96179054  0.81838912     0.18700
C2229       C  0.30946648  0.94829397  0.80243517     0.15900
C2230       C  0.29082522  0.95584674  0.79120999    -0.18600
C2231       C  0.31752362  0.92709780  0.79871958    -0.20400
C2232       C  0.33465311  0.91891997  0.81156225    -0.13000
C2233       C  0.34463952  0.93193450  0.82800488     0.03700
C2234       C  0.33708325  0.95359771  0.83098843    -0.25100
H2235       H  0.28657950  0.00657917  0.81487527     0.08800
H2236       H  0.31894904  0.99351893  0.83447618     0.12400
H2237       H  0.28290105  0.94530292  0.77922564     0.12300
H2238       H  0.30987883  0.91644679  0.78665498     0.12100
H2239       H  0.33921566  0.90186088  0.80945667     0.12600
H2240       H  0.34354336  0.96367454  0.84414806     0.14600
C2241       C  0.16442853  0.67626508  0.06659636    -0.05500
C2242       C  0.15706575  0.68392438  0.04587538    -0.05400
C2243       C  0.16704223  0.70161702  0.03548311    -0.23500
C2244       C  0.18424160  0.71261385  0.04581853     0.18700
C2245       C  0.19197319  0.70522741  0.06653453     0.15900
C2246       C  0.18194911  0.68727484  0.07684834    -0.18600
C2247       C  0.20917834  0.71637257  0.07688542    -0.20400
C2248       C  0.21846775  0.73475933  0.06689348    -0.13000
C2249       C  0.21044482  0.74255851  0.04659672     0.03700
C2250       C  0.19338592  0.73128362  0.03607493    -0.25100
H2251       H  0.14287905  0.67687957  0.03799704     0.08800
H2252       H  0.16076660  0.70718465  0.01968386     0.12400
H2253       H  0.18718252  0.68266257  0.09329987     0.12300
H2254       H  0.21535882  0.71096007  0.09277130     0.12100
H2255       H  0.23164841  0.74316075  0.07524468     0.12600
H2256       H  0.18726963  0.73701331  0.02025580     0.14600
C2257       C  0.30916100  0.83062535  0.05023288    -0.05500
C2258       C  0.31973736  0.85019066  0.04435272    -0.05400
C2259       C  0.33823817  0.85715620  0.05582949    -0.23500
C2260       C  0.34627429  0.84487351  0.07364148     0.18700
C2261       C  0.33585150  0.82509547  0.07951820     0.15900
C2262       C  0.31757102  0.81795666  0.06762364    -0.18600
C2263       C  0.34352431  0.81302938  0.09757121    -0.20400
C2264       C  0.36099313  0.82072261  0.11006593    -0.13000
C2265       C  0.37155354  0.84040803  0.10447242     0.03700
C2266       C  0.36422840  0.85226021  0.08597088    -0.25100
H2267       H  0.31374017  0.86011561  0.03077932     0.08800
H2268       H  0.34602207  0.87231636  0.05101142     0.12400
H2269       H  0.30956352  0.80285574  0.07228376     0.12300
H2270       H  0.33564485  0.79792419  0.10240596     0.12100
H2271       H  0.36572857  0.81144756  0.12453999     0.12600
H2272       H  0.37231813  0.86726801  0.08122101     0.14600
C2273       C  0.17983873  0.81306719  0.94684403    -0.05500
C2274       C  0.15944649  0.80292891  0.94855912    -0.05400
C2275       C  0.14209772  0.80955528  0.93502874    -0.23500
C2276       C  0.14470896  0.82691630  0.92008135     0.18700
C2277       C  0.16504055  0.83763883  0.91866531     0.15900
C2278       C  0.18262086  0.83035364  0.93177419    -0.18600
C2279       C  0.16730229  0.85559090  0.90435307    -0.20400
C2280       C  0.14973542  0.86251582  0.89117925    -0.13000
C2281       C  0.12979079  0.85137500  0.89180526     0.03700
C2282       C  0.12732226  0.83374052  0.90654808    -0.25100
H2283       H  0.15699387  0.78982942  0.96034782     0.08800
H2284       H  0.12656085  0.80129300  0.93645220     0.12400
H2285       H  0.19822917  0.83859446  0.93085302     0.12300
H2286       H  0.18269191  0.86417473  0.90323598     0.12100
H2287       H  0.15198424  0.87607956  0.87996172     0.12600
H2288       H  0.11182154  0.82531207  0.90745214     0.14600
C2289       C  0.34153025  0.88583014  0.89581009    -0.05500
C2290       C  0.35040430  0.88317358  0.91710964    -0.05400
C2291       C  0.33752153  0.87552760  0.93453249    -0.23500
C2292       C  0.31564160  0.86990589  0.93087446     0.18700
C2293       C  0.30696837  0.87124400  0.90926196     0.15900
C2294       C  0.31995402  0.87893587  0.89195538    -0.18600
C2295       C  0.28539640  0.86484046  0.90522646    -0.20400
C2296       C  0.27260606  0.85682630  0.92240938    -0.13000
C2297       C  0.28097547  0.85556521  0.94394754     0.03700
C2298       C  0.30244599  0.86233864  0.94823352    -0.25100
H2299       H  0.36711523  0.88746821  0.92062778     0.08800
H2300       H  0.34463579  0.87413983  0.95087895     0.12400
H2301       H  0.31307016  0.87964691  0.87547818     0.12300
H2302       H  0.27856583  0.86561341  0.88871518     0.12100
H2303       H  0.25626760  0.85109641  0.91881946     0.12600
H2304       H  0.30915182  0.86064401  0.96474266     0.14600
C2305       C  0.19818247  0.86104218  0.05183541    -0.05500
C2306       C  0.20628830  0.88168610  0.05805187    -0.05400
C2307       C  0.19585938  0.89419379  0.07438017    -0.23500
C2308       C  0.17708491  0.88634776  0.08488910     0.18700
C2309       C  0.16835711  0.86592048  0.07847926     0.15900
C2310       C  0.17894674  0.85340227  0.06203130    -0.18600
C2311       C  0.14941645  0.85823315  0.08893347    -0.20400
C2312       C  0.13961306  0.87037528  0.10599123    -0.13000
C2313       C  0.14868030  0.89029218  0.11301662     0.03700
C2314       C  0.16719476  0.89838225  0.10203253    -0.25100
H2315       H  0.22098271  0.88804379  0.05057174     0.08800
H2316       H  0.20270520  0.90988262  0.07904388     0.12400
H2317       H  0.17238036  0.83756488  0.05745235     0.12300
H2318       H  0.14240967  0.84264398  0.08418887     0.12100
H2319       H  0.12540485  0.86381038  0.11422375     0.12600
H2320       H  0.17407909  0.91396401  0.10702411     0.14600
C2321       C  0.15685001  0.93560906  0.18171070    -0.05500
C2322       C  0.15952798  0.93028360  0.20425044    -0.05400
C2323       C  0.17673142  0.93910929  0.21662025    -0.23500
C2324       C  0.19179500  0.95326340  0.20678292     0.18700
C2325       C  0.18881254  0.95944724  0.18450108     0.15900
C2326       C  0.17126263  0.95093948  0.17233105    -0.18600
C2327       C  0.20391481  0.97338780  0.17446898    -0.20400
C2328       C  0.22220706  0.98057470  0.18616429    -0.13000
C2329       C  0.22570072  0.97421336  0.20826208     0.03700
C2330       C  0.21009372  0.96085063  0.21861572    -0.25100
H2331       H  0.14897078  0.91886720  0.21247737     0.08800
H2332       H  0.17863930  0.93429553  0.23375793     0.12400
H2333       H  0.16944738  0.95534261  0.15505417     0.12300
H2334       H  0.20182845  0.97838465  0.15740167     0.12100
H2335       H  0.23369728  0.99111594  0.17781516     0.12600
H2336       H  0.21245280  0.95589418  0.23565868     0.14600
C2337       C  0.33271400  0.11849734  0.12698552    -0.05500
C2338       C  0.31886779  0.12882050  0.14236840    -0.05400
C2339       C  0.30984533  0.11691557  0.15987874    -0.23500
C2340       C  0.31422105  0.09437670  0.16202991     0.18700
C2341       C  0.32756579  0.08380683  0.14613898     0.15900
C2342       C  0.33690224  0.09596425  0.12893235    -0.18600
C2343       C  0.33144483  0.06121449  0.14769174    -0.20400
C2344       C  0.32250465  0.04920429  0.16501579    -0.13000
C2345       C  0.30976996  0.05953392  0.18138993     0.03700
C2346       C  0.30561127  0.08222474  0.17976529    -0.25100
H2347       H  0.31540099  0.14621835  0.14107528     0.08800
H2348       H  0.29952140  0.12532711  0.17173415     0.12400
H2349       H  0.34708096  0.08784269  0.11689149     0.12300
H2350       H  0.34150626  0.05283694  0.13557840     0.12100
H2351       H  0.32606672  0.03179738  0.16589696     0.12600
H2352       H  0.29568526  0.09034426  0.19217646     0.14600
C2353       C  0.30532253  0.95321936  0.31232848    -0.05500
C2354       C  0.28913313  0.94481817  0.32635021    -0.05400
C2355       C  0.29475170  0.93053171  0.34371735    -0.23500
C2356       C  0.31664324  0.92424400  0.34727855     0.18700
C2357       C  0.33287618  0.93232683  0.33303462     0.15900
C2358       C  0.32718629  0.94666817  0.31583856    -0.18600
C2359       C  0.35465810  0.92602837  0.33618154    -0.20400
C2360       C  0.36046072  0.91190253  0.35335197    -0.13000
C2361       C  0.34472085  0.90376095  0.36811786     0.03700
C2362       C  0.32263968  0.91015031  0.36481555    -0.25100
H2363       H  0.27219249  0.94949060  0.32407309     0.08800
H2364       H  0.28198234  0.92445598  0.35439728     0.12400
H2365       H  0.33996621  0.95274517  0.30514822     0.12300
H2366       H  0.36730059  0.93199788  0.32526917     0.12100
H2367       H  0.37744390  0.90738323  0.35465008     0.12600
H2368       H  0.31006420  0.90458238  0.37594701     0.14600
C2369       C  0.34500182  0.95390251  0.20737235    -0.05500
C2370       C  0.36487428  0.94723389  0.21700049    -0.05400
C2371       C  0.37763177  0.93084605  0.20720358    -0.23500
C2372       C  0.37077387  0.92075228  0.18758353     0.18700
C2373       C  0.35091944  0.92731085  0.17761487     0.15900
C2374       C  0.33814402  0.94382411  0.18756851    -0.18600
C2375       C  0.34419742  0.91718042  0.15790304    -0.20400
C2376       C  0.35696811  0.90060763  0.14826652    -0.13000
C2377       C  0.37662228  0.89383570  0.15820956     0.03700
C2378       C  0.38347520  0.90417825  0.17781995    -0.25100
H2379       H  0.37055242  0.95459756  0.23224855     0.08800
H2380       H  0.39282921  0.92599351  0.21504499     0.12400
H2381       H  0.32286700  0.94874686  0.17992326     0.12300
H2382       H  0.32902271  0.92199527  0.15000110     0.12100
H2383       H  0.35125296  0.89285114  0.13324086     0.12600
H2384       H  0.39887851  0.89956020  0.18538737     0.14600
C2385       C  0.34761716  0.05799249  0.29160790    -0.05500
C2386       C  0.37037709  0.05781054  0.28877536    -0.05400
C2387       C  0.38363446  0.07167978  0.30142268    -0.23500
C2388       C  0.37438306  0.08556605  0.31748790     0.18700
C2389       C  0.35161798  0.08502894  0.32120881     0.15900
C2390       C  0.33838207  0.07151773  0.30803504    -0.18600
C2391       C  0.34242100  0.09833760  0.33777208    -0.20400
C2392       C  0.35549052  0.11276383  0.34990312    -0.13000
C2393       C  0.37785683  0.11437234  0.34541924     0.03700
C2394       C  0.38733438  0.10041523  0.32947314    -0.25100
H2395       H  0.37782993  0.04741150  0.27632013     0.08800
H2396       H  0.40108260  0.07171134  0.29848425     0.12400
H2397       H  0.32086429  0.07146238  0.31059591     0.12300
H2398       H  0.32502790  0.09797934  0.34097180     0.12100
H2399       H  0.34792697  0.12354901  0.36195712     0.12600
H2400       H  0.40464848  0.10161250  0.32599488     0.14600
C2401       C  0.52807929  0.79601588  0.72226914    -0.05500
C2402       C  0.51287910  0.80536378  0.70746634    -0.05400
C2403       C  0.51986722  0.81815037  0.68964344    -0.23500
C2404       C  0.54218092  0.82204917  0.68638845     0.18700
C2405       C  0.55751355  0.81259617  0.70111880     0.15900
C2406       C  0.55042433  0.79956985  0.71874751    -0.18600
C2407       C  0.57973767  0.81665866  0.69831112    -0.20400
C2408       C  0.58676067  0.83025774  0.68135572    -0.13000
C2409       C  0.57185471  0.83996937  0.66644806     0.03700
C2410       C  0.54941706  0.83554233  0.66900526    -0.25100
H2411       H  0.49554138  0.80284641  0.70968982     0.08800
H2412       H  0.50779438  0.82521240  0.67857933     0.12400
H2413       H  0.56235961  0.79258776  0.73002442     0.12300
H2414       H  0.59172194  0.80961172  0.70948631     0.12100
H2415       H  0.60407581  0.83347488  0.67998218     0.12600
H2416       H  0.53745151  0.84286491  0.65809149     0.14600
C2417       C  0.44368141  0.81253799  0.80923484    -0.05500
C2418       C  0.42579853  0.81714323  0.79539573    -0.05400
C2419       C  0.41031558  0.83300624  0.80146960    -0.23500
C2420       C  0.41258586  0.84465563  0.82137841     0.18700
C2421       C  0.43053836  0.84022603  0.83534318     0.15900
C2422       C  0.44586119  0.82418177  0.82925514    -0.18600
C2423       C  0.43297350  0.85202396  0.85511330    -0.20400
C2424       C  0.41791904  0.86837727  0.86086012    -0.13000
C2425       C  0.40003851  0.87306434  0.84706535     0.03700
C2426       C  0.39733265  0.86080778  0.82745286    -0.25100
H2427       H  0.42367721  0.80837030  0.77996645     0.08800
H2428       H  0.39663165  0.83624051  0.79054913     0.12400
H2429       H  0.45958444  0.82089120  0.84012261     0.12300
H2430       H  0.44671881  0.84884174  0.86597093     0.12100
H2431       H  0.42065769  0.87769827  0.87583393     0.12600
H2432       H  0.38337356  0.86378157  0.81683367     0.14600
C2433       C  0.56047099  0.79238930  0.83868052    -0.05500
C2434       C  0.58152939  0.78323570  0.83962085    -0.05400
C2435       C  0.59828571  0.79415151  0.85060480    -0.23500
C2436       C  0.59433069  0.81466026  0.86034404     0.18700
C2437       C  0.57323612  0.82419025  0.85920335     0.15900
C2438       C  0.55628953  0.81278414  0.84866553    -0.18600
C2439       C  0.56956549  0.84500644  0.86847811    -0.20400
C2440       C  0.58650206  0.85603579  0.87923844    -0.13000
C2441       C  0.60726620  0.84632065  0.88104975     0.03700
C2442       C  0.61113466  0.82575041  0.87125286    -0.25100
H2443       H  0.58496162  0.76753913  0.83189544     0.08800
H2444       H  0.61437209  0.78665906  0.85129791     0.12400
H2445       H  0.54009063  0.82000315  0.84762277     0.12300
H2446       H  0.55355996  0.85263975  0.86761944     0.12100
H2447       H  0.58314995  0.87180093  0.88683078     0.12600
H2448       H  0.62724208  0.81831174  0.87221911     0.14600
C2449       C  0.39183649  0.35715839  0.61825276    -0.05500
C2450       C  0.39409926  0.36094449  0.64098064    -0.05400
C2451       C  0.40959248  0.34915760  0.65323501    -0.23500
C2452       C  0.42315350  0.33361941  0.64280980     0.18700
C2453       C  0.42186534  0.33074101  0.61966149     0.15900
C2454       C  0.40609672  0.34245977  0.60754168    -0.18600
C2455       C  0.43579460  0.31557645  0.60920072    -0.20400
C2456       C  0.45019723  0.30264165  0.62167798    -0.13000
C2457       C  0.45065779  0.30446215  0.64481559     0.03700
C2458       C  0.43742601  0.32038451  0.65521573    -0.25100
H2459       H  0.38312083  0.37217271  0.64940571     0.08800
H2460       H  0.41051198  0.35169732  0.67094476     0.12400
H2461       H  0.40436290  0.33963735  0.58992215     0.12300
H2462       H  0.43517285  0.31334413  0.59143657     0.12100
H2463       H  0.46034050  0.29060814  0.61332313     0.12600
H2464       H  0.43794853  0.32219564  0.67304442     0.14600
C2465       C  0.38118028  0.40822808  0.56462322    -0.05500
C2466       C  0.37299951  0.42062766  0.54683317    -0.05400
C2467       C  0.38674420  0.43440901  0.53473370    -0.23500
C2468       C  0.40904056  0.43579026  0.53995644     0.18700
C2469       C  0.41756702  0.42271594  0.55727122     0.15900
C2470       C  0.40357388  0.40925642  0.56962860    -0.18600
C2471       C  0.43995915  0.42338366  0.56200345    -0.20400
C2472       C  0.45371556  0.43719631  0.55007070    -0.13000
C2473       C  0.44536799  0.45098677  0.53342718     0.03700
C2474       C  0.42293229  0.45009299  0.52833568    -0.25100
H2475       H  0.35583423  0.42001316  0.54257877     0.08800
H2476       H  0.37990507  0.44407202  0.52136715     0.12400
H2477       H  0.41017144  0.39933632  0.58294624     0.12300
H2478       H  0.44683261  0.41332808  0.57506083     0.12100
H2479       H  0.47089629  0.43755798  0.55431807     0.12600
H2480       H  0.41634939  0.46042300  0.51533670     0.14600
C2481       C  0.57510012  0.39314330  0.39542162    -0.05500
C2482       C  0.58180165  0.41483538  0.39185522    -0.05400
C2483       C  0.57146516  0.43231492  0.40272809    -0.23500
C2484       C  0.55448629  0.42838827  0.41771829     0.18700
C2485       C  0.54786698  0.40657828  0.42172991     0.15900
C2486       C  0.55799807  0.38913703  0.41033367    -0.18600
C2487       C  0.53143183  0.40257801  0.43730460    -0.20400
C2488       C  0.52200909  0.41993838  0.44916840    -0.13000
C2489       C  0.52833345  0.44167373  0.44520152     0.03700
C2490       C  0.54435211  0.44582857  0.42913230    -0.25100
H2491       H  0.59468445  0.41833939  0.38016769     0.08800
H2492       H  0.57681779  0.44889750  0.39947892     0.12400
H2493       H  0.55278798  0.37243584  0.41324242     0.12300
H2494       H  0.52619057  0.38597974  0.44065466     0.12100
H2495       H  0.50976942  0.41638963  0.46153188     0.12600
H2496       H  0.54959420  0.46252719  0.42623955     0.14600
C2497       C  0.39812547  0.64102451  0.32941905    -0.05500
C2498       C  0.39119758  0.65274255  0.31058450    -0.05400
C2499       C  0.40409322  0.66943287  0.30163719    -0.23500
C2500       C  0.42426577  0.67467232  0.31124972     0.18700
C2501       C  0.43131285  0.66290151  0.33013947     0.15900
C2502       C  0.41820412  0.64636350  0.33912424    -0.18600
C2503       C  0.45138339  0.66786885  0.33986652    -0.20400
C2504       C  0.46414109  0.68468915  0.33141533    -0.13000
C2505       C  0.45726545  0.69697599  0.31294208     0.03700
C2506       C  0.43738235  0.69160569  0.30261237    -0.25100
H2507       H  0.37564706  0.64917516  0.30289418     0.08800
H2508       H  0.39826130  0.67825726  0.28723389     0.12400
H2509       H  0.42387282  0.63740798  0.35349227     0.12300
H2510       H  0.45712527  0.65891587  0.35423484     0.12100
H2511       H  0.47945977  0.68826556  0.33959197     0.12600
H2512       H  0.43183432  0.70098286  0.28844516     0.14600
C2513       C  0.44521599  0.53824963  0.43947101    -0.05500
C2514       C  0.42282983  0.53380205  0.44137787    -0.05400
C2515       C  0.40763985  0.54389404  0.42740914    -0.23500
C2516       C  0.41444797  0.55906619  0.41153508     0.18700
C2517       C  0.43685497  0.56415395  0.40966026     0.15900
C2518       C  0.45218410  0.55343951  0.42343642    -0.18600
C2519       C  0.44340197  0.57989260  0.39408167    -0.20400
C2520       C  0.42794340  0.59013200  0.38030316    -0.13000
C2521       C  0.40580083  0.58458258  0.38170200     0.03700
C2522       C  0.39916825  0.56913206  0.39744775    -0.25100
H2523       H  0.41706753  0.52227504  0.45361426     0.08800
H2524       H  0.39051347  0.53990975  0.42911785     0.12400
H2525       H  0.46938166  0.55727497  0.42206227     0.12300
H2526       H  0.46046657  0.58413193  0.39242738     0.12100
H2527       H  0.43336898  0.60179526  0.36805913     0.12600
H2528       H  0.38204667  0.56486509  0.39859156     0.14600
C2529       C  0.42978035  0.61976470  0.59851340    -0.05500
C2530       C  0.41741816  0.61505240  0.57948151    -0.05400
C2531       C  0.42540865  0.60086314  0.56322693    -0.23500
C2532       C  0.44613113  0.59129494  0.56543150     0.18700
C2533       C  0.45921541  0.59662949  0.58393172     0.15900
C2534       C  0.45094127  0.61075110  0.60042367    -0.18600
C2535       C  0.48022250  0.58747450  0.58572895    -0.20400
C2536       C  0.48796653  0.57284751  0.56962957    -0.13000
C2537       C  0.47473346  0.56679557  0.55163678     0.03700
C2538       C  0.45385967  0.57629786  0.54954594    -0.25100
H2539       H  0.40148053  0.62240635  0.57698098     0.08800
H2540       H  0.41531221  0.59730476  0.54895979     0.12400
H2541       H  0.46074040  0.61423306  0.61491694     0.12300
H2542       H  0.49057533  0.59143863  0.59968968     0.12100
H2543       H  0.50409816  0.56572236  0.57162116     0.12600
H2544       H  0.44360662  0.57195049  0.53560750     0.14600
C2545       C  0.43080965  0.67668198  0.66067745    -0.05500
C2546       C  0.43024999  0.69977091  0.65913901    -0.05400
C2547       C  0.43866043  0.71282912  0.67608763    -0.23500
C2548       C  0.44779887  0.70316420  0.69494600     0.18700
C2549       C  0.44989089  0.68011665  0.69603848     0.15900
C2550       C  0.44212647  0.66713527  0.67859851    -0.18600
C2551       C  0.45897442  0.67038397  0.71491830    -0.20400
C2552       C  0.46573083  0.68337503  0.73265019    -0.13000
C2553       C  0.46363146  0.70636306  0.73180679     0.03700
C2554       C  0.45471248  0.71614787  0.71277463    -0.25100
H2555       H  0.42318634  0.70806620  0.64509833     0.08800
H2556       H  0.43746386  0.73051712  0.67469675     0.12400
H2557       H  0.44346946  0.64942508  0.67972711     0.12300
H2558       H  0.46063306  0.65271251  0.71608111     0.12100
H2559       H  0.47265063  0.67537676  0.74703904     0.12600
H2560       H  0.45319756  0.73384671  0.71177447     0.14600
C2561       C  0.60540037  0.37472917  0.65118431    -0.05500
C2562       C  0.58934275  0.36979189  0.63531659    -0.05400
C2563       C  0.57385003  0.35348151  0.63927915    -0.23500
C2564       C  0.57390359  0.34191156  0.65931432     0.18700
C2565       C  0.58972804  0.34685513  0.67551384     0.15900
C2566       C  0.60545457  0.36297258  0.67127284    -0.18600
C2567       C  0.58955967  0.33560889  0.69573659    -0.20400
C2568       C  0.57390251  0.31953204  0.69986195    -0.13000
C2569       C  0.55824960  0.31417977  0.68375758     0.03700
C2570       C  0.55838499  0.32553535  0.66345348    -0.25100
H2571       H  0.58840765  0.37876812  0.61993759     0.08800
H2572       H  0.56169853  0.35004928  0.62672722     0.12400
H2573       H  0.61784660  0.36612414  0.68363322     0.12300
H2574       H  0.60152240  0.33927958  0.70840282     0.12100
H2575       H  0.57418957  0.31112947  0.71561408     0.12600
H2576       H  0.54630454  0.32178776  0.65091428     0.14600
C2577       C  0.61067756  0.43490583  0.60506586    -0.05500
C2578       C  0.61027057  0.42523481  0.58391944    -0.05400
C2579       C  0.59683802  0.43358422  0.56720896    -0.23500
C2580       C  0.58371885  0.45209243  0.57104638     0.18700
C2581       C  0.58450475  0.46261762  0.59187410     0.15900
C2582       C  0.59785504  0.45389246  0.60880664    -0.18600
C2583       C  0.57179555  0.48158798  0.59536434    -0.20400
C2584       C  0.55841169  0.48990982  0.57845508    -0.13000
C2585       C  0.55707889  0.47913378  0.55793437     0.03700
C2586       C  0.56981503  0.46019870  0.55437725    -0.25100
H2587       H  0.62047763  0.41119958  0.58007471     0.08800
H2588       H  0.59674545  0.42553756  0.55121870     0.12400
H2589       H  0.59788026  0.46163183  0.62494165     0.12300
H2590       H  0.57217800  0.48997210  0.61117141     0.12100
H2591       H  0.54864317  0.50445906  0.58159617     0.12600
H2592       H  0.56901981  0.45188135  0.53853703     0.14600
C2593       C  0.66006159  0.43446529  0.67373265    -0.05500
C2594       C  0.66169983  0.42745771  0.69590740    -0.05400
C2595       C  0.67868768  0.43480797  0.70951834    -0.23500
C2596       C  0.69467170  0.44891007  0.70119166     0.18700
C2597       C  0.69257272  0.45693344  0.67942173     0.15900
C2598       C  0.67501517  0.45024865  0.66618550    -0.18600
C2599       C  0.70874545  0.47053824  0.67073556    -0.20400
C2600       C  0.72708417  0.47583871  0.68332865    -0.13000
C2601       C  0.72957675  0.46786732  0.70500570     0.03700
C2602       C  0.71305824  0.45456863  0.71394693    -0.25100
H2603       H  0.65093379  0.41525933  0.70261891     0.08800
H2604       H  0.67995621  0.42853206  0.72622267     0.12400
H2605       H  0.67424921  0.45561291  0.64911617     0.12300
H2606       H  0.70741600  0.47677960  0.65402183     0.12100
H2607       H  0.73930425  0.48633325  0.67605440     0.12600
H2608       H  0.71463135  0.44837059  0.73065947     0.14600
C2609       C  0.61263959  0.66227788  0.38150112    -0.05500
C2610       C  0.59082508  0.65636409  0.38520385    -0.05400
C2611       C  0.57367030  0.66893787  0.37619871    -0.23500
C2612       C  0.57812631  0.68752358  0.36325596     0.18700
C2613       C  0.60012140  0.69294158  0.35889410     0.15900
C2614       C  0.61708556  0.68032618  0.36793617    -0.18600
C2615       C  0.60494003  0.71113295  0.34580699    -0.20400
C2616       C  0.58818455  0.72386789  0.33691253    -0.13000
C2617       C  0.56620509  0.71892274  0.34108359     0.03700
C2618       C  0.56117848  0.70077148  0.35450030    -0.25100
H2619       H  0.58706589  0.64263310  0.39583680     0.08800
H2620       H  0.55696374  0.66436946  0.37967955     0.12400
H2621       H  0.63389673  0.68488094  0.36486142     0.12300
H2622       H  0.62171726  0.71547032  0.34233104     0.12100
H2623       H  0.59244534  0.73770690  0.32661570     0.12600
H2624       H  0.54426154  0.69663355  0.35752472     0.14600
C2625       C  0.56245015  0.55333674  0.46012873    -0.05500
C2626       C  0.56819753  0.54807302  0.43818607    -0.05400
C2627       C  0.58365513  0.56035823  0.42672684    -0.23500
C2628       C  0.59358565  0.57840656  0.43682779     0.18700
C2629       C  0.58813720  0.58378461  0.45890804     0.15900
C2630       C  0.57280472  0.57111256  0.47051357    -0.18600
C2631       C  0.59778034  0.60204639  0.46886279    -0.20400
C2632       C  0.61242870  0.61497296  0.45704979    -0.13000
C2633       C  0.61820741  0.60976520  0.43506704     0.03700
C2634       C  0.60866497  0.59127929  0.42511937    -0.25100
H2635       H  0.56065029  0.53439290  0.42973985     0.08800
H2636       H  0.58760355  0.55591093  0.40984849     0.12400
H2637       H  0.56852860  0.57544279  0.48734725     0.12300
H2638       H  0.59371359  0.60658301  0.48568921     0.12100
H2639       H  0.61883906  0.62936441  0.46519037     0.12600
H2640       H  0.61298993  0.58676327  0.40837031     0.14600
C2641       C  0.16057977  0.43622782  0.82330782    -0.05500
C2642       C  0.17274677  0.42246421  0.80911047    -0.05400
C2643       C  0.19062760  0.43037914  0.79744020    -0.23500
C2644       C  0.19702596  0.45221246  0.79995311     0.18700
C2645       C  0.18476400  0.46641295  0.81369480     0.15900
C2646       C  0.16656601  0.45844450  0.82511216    -0.18600
C2647       C  0.19137455  0.48820236  0.81645523    -0.20400
C2648       C  0.21014920  0.49574298  0.80597854    -0.13000
C2649       C  0.22263663  0.48166393  0.79247943     0.03700
C2650       C  0.21581620  0.45990759  0.78939803    -0.25100
H2651       H  0.16889275  0.40520479  0.80772289     0.08800
H2652       H  0.19986197  0.41922920  0.78701331     0.12400
H2653       H  0.15815235  0.46944379  0.83622120     0.12300
H2654       H  0.18218784  0.49934369  0.82693149     0.12100
H2655       H  0.21492226  0.51262796  0.80854894     0.12600
H2656       H  0.22522342  0.44886837  0.77899593     0.14600
C2657       C  0.29926517  0.45369950  0.68962001    -0.05500
C2658       C  0.29083711  0.43234494  0.68995304    -0.05400
C2659       C  0.29821815  0.41656016  0.67486499    -0.23500
C2660       C  0.31452386  0.42172472  0.65949726     0.18700
C2661       C  0.32331601  0.44307186  0.65914587     0.15900
C2662       C  0.31539628  0.45901269  0.67398648    -0.18600
C2663       C  0.34005027  0.44799662  0.64412971    -0.20400
C2664       C  0.34769820  0.43203966  0.62928916    -0.13000
C2665       C  0.33858731  0.41099433  0.62906634     0.03700
C2666       C  0.32217720  0.40588976  0.64448155    -0.25100
H2667       H  0.27854857  0.42785617  0.70194408     0.08800
H2668       H  0.29135802  0.40023556  0.67538986     0.12400
H2669       H  0.32232640  0.47532680  0.67389198     0.12300
H2670       H  0.34709544  0.46424087  0.64373942     0.12100
H2671       H  0.36022091  0.43637502  0.61749895     0.12600
H2672       H  0.31530529  0.38955448  0.64475716     0.14600
C2673       C  0.34724225  0.55561947  0.70662996    -0.05500
C2674       C  0.36698769  0.56228826  0.71633592    -0.05400
C2675       C  0.38020813  0.57765444  0.70587801    -0.23500
C2676       C  0.37391627  0.58665955  0.68552498     0.18700
C2677       C  0.35449467  0.57958397  0.67522785     0.15900
C2678       C  0.34133615  0.56403430  0.68577252    -0.18600
C2679       C  0.34829989  0.58859989  0.65482339    -0.20400
C2680       C  0.36090520  0.60495512  0.64503251    -0.13000
C2681       C  0.37993720  0.61255462  0.65544213     0.03700
C2682       C  0.38654217  0.60293015  0.67553338    -0.25100
H2683       H  0.37196342  0.55608945  0.73234787     0.08800
H2684       H  0.39511108  0.58285022  0.71394682     0.12400
H2685       H  0.32623967  0.55895002  0.67799373     0.12300
H2686       H  0.33349406  0.58330742  0.64664186     0.12100
H2687       H  0.35537071  0.61199109  0.62959940     0.12600
H2688       H  0.40151088  0.60809413  0.68348984     0.14600
C2689       C  0.29278402  0.35424310  0.04933616    -0.05500
C2690       C  0.29218067  0.37725631  0.04866084    -0.05400
C2691       C  0.30521017  0.38960128  0.06297821    -0.23500
C2692       C  0.31929150  0.37912857  0.07799342     0.18700
C2693       C  0.32083837  0.35598687  0.07805744     0.15900
C2694       C  0.30749030  0.34370767  0.06383778    -0.18600
C2695       C  0.33520490  0.34552941  0.09284179    -0.20400
C2696       C  0.34718956  0.35785229  0.10809443    -0.13000
C2697       C  0.34492166  0.38073071  0.10880718     0.03700
C2698       C  0.33127585  0.39134420  0.09345776    -0.25100
H2699       H  0.28107241  0.38570996  0.03758091     0.08800
H2700       H  0.30395631  0.40733042  0.06260703     0.12400
H2701       H  0.30833410  0.32594249  0.06426677     0.12300
H2702       H  0.33665470  0.32780823  0.09306993     0.12100
H2703       H  0.35730336  0.34943707  0.12010954     0.12600
H2704       H  0.32947345  0.40904047  0.09409680     0.14600
C2705       C  0.43720512  0.46547354  0.05333963    -0.05500
C2706       C  0.42164477  0.45075049  0.04493905    -0.05400
C2707       C  0.40842449  0.43860087  0.05911322    -0.23500
C2708       C  0.41015056  0.44115652  0.08206214     0.18700
C2709       C  0.42520043  0.45639773  0.09081687     0.15900
C2710       C  0.43884477  0.46825956  0.07642349    -0.18600
C2711       C  0.42625749  0.45948792  0.11380681    -0.20400
C2712       C  0.41259600  0.44761176  0.12790177    -0.13000
C2713       C  0.39800673  0.43205730  0.11933594     0.03700
C2714       C  0.39694179  0.42884599  0.09636915    -0.25100
H2715       H  0.42003217  0.44819865  0.02729206     0.08800
H2716       H  0.39685699  0.42714877  0.05209461     0.12400
H2717       H  0.45059481  0.47970265  0.08314835     0.12300
H2718       H  0.43752593  0.47120143  0.12087698     0.12100
H2719       H  0.41353429  0.45042375  0.14556044     0.12600
H2720       H  0.38538415  0.41720549  0.08962172     0.14600
C2721       C  0.60042087  0.62894021  0.83818845    -0.05500
C2722       C  0.57861250  0.62781708  0.84505425    -0.05400
C2723       C  0.56312137  0.64263376  0.83691824    -0.23500
C2724       C  0.56927505  0.65905565  0.82203345     0.18700
C2725       C  0.59122879  0.66050997  0.81511590     0.15900
C2726       C  0.60665465  0.64527164  0.82307376    -0.18600
C2727       C  0.59734359  0.67732734  0.80059960    -0.20400
C2728       C  0.58189216  0.69274043  0.79327288    -0.13000
C2729       C  0.56001116  0.69138242  0.80008106     0.03700
C2730       C  0.55385162  0.67426892  0.81430152    -0.25100
H2731       H  0.57345985  0.61517877  0.85642524     0.08800
H2732       H  0.54633656  0.64132346  0.84237166     0.12400
H2733       H  0.62353337  0.64631990  0.81783377     0.12300
H2734       H  0.61412571  0.67875123  0.79517774     0.12100
H2735       H  0.58710320  0.70582091  0.78245583     0.12600
H2736       H  0.53710658  0.67309362  0.81993738     0.14600
C2737       C  0.54623537  0.53893798  0.94167326    -0.05500
C2738       C  0.55642005  0.55771019  0.95030438    -0.05400
C2739       C  0.57196283  0.56909623  0.93803194    -0.23500
C2740       C  0.57737129  0.56225384  0.91659728     0.18700
C2741       C  0.56724777  0.54343986  0.90760456     0.15900
C2742       C  0.55192851  0.53169996  0.92030852    -0.18600
C2743       C  0.57255895  0.53683961  0.88602243    -0.20400
C2744       C  0.58775241  0.54864211  0.87357704    -0.13000
C2745       C  0.59799770  0.56731051  0.88240994     0.03700
C2746       C  0.59266007  0.57399160  0.90401291    -0.25100
H2747       H  0.55248031  0.56348799  0.96677668     0.08800
H2748       H  0.57960285  0.58340671  0.94525354     0.12400
H2749       H  0.54411737  0.51730783  0.91344289     0.12300
H2750       H  0.56491001  0.52257900  0.87872295     0.12100
H2751       H  0.59132525  0.54325843  0.85689908     0.12600
H2752       H  0.60063436  0.58813416  0.91120136     0.14600
C2753       C  0.66345269  0.57610525  0.82958496    -0.05500
C2754       C  0.67809757  0.59092410  0.81974749    -0.05400
C2755       C  0.69599035  0.58348509  0.80756997    -0.23500
C2756       C  0.69974197  0.56097887  0.80494571     0.18700
C2757       C  0.68504137  0.54586243  0.81429330     0.15900
C2758       C  0.66694803  0.55345742  0.82637213    -0.18600
C2759       C  0.68892797  0.52331213  0.81182702    -0.20400
C2760       C  0.70735075  0.51581074  0.80047524    -0.13000
C2761       C  0.72215965  0.53070780  0.79123103     0.03700
C2762       C  0.71812721  0.55334231  0.79340753    -0.25100
H2763       H  0.67592550  0.60843985  0.82199619     0.08800
H2764       H  0.70708298  0.59533764  0.80053604     0.12400
H2765       H  0.65626852  0.54150847  0.83361704     0.12300
H2766       H  0.67784302  0.51146520  0.81886793     0.12100
H2767       H  0.70999736  0.49829173  0.79895387     0.12600
H2768       H  0.72944948  0.56503401  0.78645427     0.14600
C2769       C  0.39304679  0.67000594  0.88306752    -0.05500
C2770       C  0.39922934  0.65976758  0.86323344    -0.05400
C2771       C  0.41662869  0.66782425  0.85088730    -0.23500
C2772       C  0.42820654  0.68620770  0.85824905     0.18700
C2773       C  0.42247806  0.69634181  0.87846590     0.15900
C2774       C  0.40488296  0.68818658  0.89075368    -0.18600
C2775       C  0.43419712  0.71468623  0.88577608    -0.20400
C2776       C  0.45083669  0.72346561  0.87272521    -0.13000
C2777       C  0.45615332  0.71393443  0.85222377     0.03700
C2778       C  0.44503446  0.69494154  0.84540270    -0.25100
H2779       H  0.39026937  0.64579507  0.85701149     0.08800
H2780       H  0.42083622  0.65985770  0.83542165     0.12400
H2781       H  0.40041512  0.69592549  0.90626857     0.12300
H2782       H  0.43014716  0.72256053  0.90132951     0.12100
H2783       H  0.45916567  0.73802786  0.87843307     0.12600
H2784       H  0.44893112  0.68730825  0.82967918     0.14600
C2785       C  0.34157538  0.61570078  0.87426089    -0.05500
C2786       C  0.35491227  0.59696582  0.87178102    -0.05400
C2787       C  0.35048668  0.58134111  0.85548299    -0.23500
C2788       C  0.33239012  0.58388469  0.84151948     0.18700
C2789       C  0.31856080  0.60236921  0.84408507     0.15900
C2790       C  0.32331690  0.61821611  0.86027660    -0.18600
C2791       C  0.30016307  0.60465181  0.83043871    -0.20400
C2792       C  0.29539611  0.58868333  0.81456742    -0.13000
C2793       C  0.30912828  0.57031332  0.81175928     0.03700
C2794       C  0.32775965  0.56813318  0.82521076    -0.25100
H2795       H  0.36868968  0.59409996  0.88262297     0.08800
H2796       H  0.36112837  0.56714648  0.85394455     0.12400
H2797       H  0.31294047  0.63260594  0.86172633     0.12300
H2798       H  0.28935815  0.61870175  0.83214928     0.12100
H2799       H  0.28102559  0.59081418  0.80431833     0.12600
H2800       H  0.33840356  0.55397277  0.82329650     0.14600
C2801       C  0.38558058  0.62006241  0.93601480    -0.05500
C2802       C  0.40776158  0.62540765  0.93476265    -0.05400
C2803       C  0.42366490  0.61121564  0.94320580    -0.23500
C2804       C  0.41765054  0.59114512  0.95257752     0.18700
C2805       C  0.39530565  0.58559003  0.95397498     0.15900
C2806       C  0.37931669  0.60026421  0.94589952    -0.18600
C2807       C  0.38947031  0.56520500  0.96283293    -0.20400
C2808       C  0.40559050  0.55039614  0.96997085    -0.13000
C2809       C  0.42785979  0.55578020  0.96865602     0.03700
C2810       C  0.43368527  0.57635890  0.96008545    -0.25100
H2811       H  0.41277924  0.64048887  0.92686663     0.08800
H2812       H  0.44070312  0.61569180  0.94189854     0.12400
H2813       H  0.36218825  0.59592899  0.94640682     0.12300
H2814       H  0.37245778  0.56060100  0.96399970     0.12100
H2815       H  0.40060403  0.53473112  0.97660423     0.12600
H2816       H  0.45075914  0.58075088  0.95884224     0.14600
C2817       C  0.28861392  0.74030878  0.97196820    -0.05500
C2818       C  0.30473979  0.73096742  0.98574900    -0.05400
C2819       C  0.31754256  0.71328610  0.97852124    -0.23500
C2820       C  0.31449188  0.70442527  0.95735473     0.18700
C2821       C  0.29831829  0.71354257  0.94337836     0.15900
C2822       C  0.28551950  0.73140756  0.95071533    -0.18600
C2823       C  0.29557092  0.70496707  0.92208422    -0.20400
C2824       C  0.30889464  0.68780636  0.91457661    -0.13000
C2825       C  0.32493386  0.67821061  0.92834206     0.03700
C2826       C  0.32771546  0.68698067  0.94977323    -0.25100
H2827       H  0.30763327  0.73744487  0.00216913     0.08800
H2828       H  0.32991405  0.70660983  0.98947989     0.12400
H2829       H  0.27322457  0.73838907  0.93985481     0.12300
H2830       H  0.28348009  0.71191921  0.91098150     0.12100
H2831       H  0.30701796  0.68247876  0.89761270     0.12600
H2832       H  0.34070691  0.68099404  0.96033042     0.14600
C2833       C  0.36790396  0.33514360  0.89206810    -0.05500
C2834       C  0.37257794  0.31559658  0.90355571    -0.05400
C2835       C  0.35731986  0.30660742  0.91816923    -0.23500
C2836       C  0.33701514  0.31691484  0.92145397     0.18700
C2837       C  0.33230323  0.33659890  0.90998081     0.15900
C2838       C  0.34771878  0.34556310  0.89554089    -0.18600
C2839       C  0.31220620  0.34712966  0.91309584    -0.20400
C2840       C  0.29705905  0.33858235  0.92780393    -0.13000
C2841       C  0.30150218  0.31921412  0.93964249     0.03700
C2842       C  0.32145772  0.30817136  0.93616973    -0.25100
H2843       H  0.38811927  0.30731497  0.90135431     0.08800
H2844       H  0.36138976  0.29160619  0.92685471     0.12400
H2845       H  0.34371803  0.36042702  0.88665426     0.12300
H2846       H  0.30830642  0.36217551  0.90439494     0.12100
H2847       H  0.28181317  0.34739218  0.93020613     0.12600
H2848       H  0.32516841  0.29342513  0.94545358     0.14600
C2849       C  0.36798413  0.39088170  0.83817574    -0.05500
C2850       C  0.34574444  0.39292536  0.84322118    -0.05400
C2851       C  0.33311248  0.40951956  0.83344227    -0.23500
C2852       C  0.34268956  0.42443637  0.81873665     0.18700
C2853       C  0.36528611  0.42289030  0.81426542     0.15900
C2854       C  0.37771049  0.40604768  0.82387587    -0.18600
C2855       C  0.37505046  0.43803817  0.80003004    -0.20400
C2856       C  0.36247278  0.45435880  0.78989659    -0.13000
C2857       C  0.33987088  0.45558121  0.79353037     0.03700
C2858       C  0.33007855  0.44065842  0.80816791    -0.25100
H2859       H  0.33801815  0.38130339  0.85412659     0.08800
H2860       H  0.31583651  0.41053081  0.83716736     0.12400
H2861       H  0.39498345  0.40461286  0.82017155     0.12300
H2862       H  0.39238005  0.43711652  0.79654353     0.12100
H2863       H  0.37031983  0.46561823  0.77864825     0.12600
H2864       H  0.31266049  0.44161530  0.81123728     0.14600
C2865       C  0.42044271  0.39141466  0.88750610    -0.05500
C2866       C  0.40718399  0.40958474  0.89305900    -0.05400
C2867       C  0.41467293  0.42604837  0.90714999    -0.23500
C2868       C  0.43592752  0.42527638  0.91558969     0.18700
C2869       C  0.44997018  0.40782130  0.90946684     0.15900
C2870       C  0.44211344  0.39086502  0.89562493    -0.18600
C2871       C  0.47155830  0.40769706  0.91740445    -0.20400
C2872       C  0.47899474  0.42455929  0.93133094    -0.13000
C2873       C  0.46490438  0.44169307  0.93795468     0.03700
C2874       C  0.44333128  0.44183421  0.92993396    -0.25100
H2875       H  0.39092727  0.41146771  0.88634234     0.08800
H2876       H  0.40382798  0.43955765  0.91128393     0.12400
H2877       H  0.45275762  0.37720457  0.89153084     0.12300
H2878       H  0.48269311  0.39456748  0.91285870     0.12100
H2879       H  0.49567179  0.42395362  0.93728846     0.12600
H2880       H  0.43229871  0.45499062  0.93469600     0.14600
C2881       C  0.42049802  0.32933990  0.82813621    -0.05500
C2882       C  0.40731366  0.31414410  0.81670161    -0.05400
C2883       C  0.41526869  0.30230723  0.79864671    -0.23500
C2884       C  0.43658853  0.30555072  0.79121313     0.18700
C2885       C  0.45027874  0.32030736  0.80269787     0.15900
C2886       C  0.44226281  0.33197300  0.82115657    -0.18600
C2887       C  0.47158716  0.32363292  0.79509681    -0.20400
C2888       C  0.47916306  0.31265665  0.77626969    -0.13000
C2889       C  0.46561058  0.29810254  0.76453947     0.03700
C2890       C  0.44428090  0.29459442  0.77223938    -0.25100
H2891       H  0.39038714  0.31199614  0.82131452     0.08800
H2892       H  0.40449711  0.29107522  0.79010203     0.12400
H2893       H  0.45275928  0.34374502  0.82915683     0.12300
H2894       H  0.48237126  0.33487162  0.80360945     0.12100
H2895       H  0.49569394  0.31569781  0.77082282     0.12600
H2896       H  0.43366541  0.28333957  0.76351486     0.14600
C2897       C  0.55891166  0.61032178  0.10596371    -0.05500
C2898       C  0.56428020  0.58832735  0.11042928    -0.05400
C2899       C  0.55450106  0.57128131  0.09858587    -0.23500
C2900       C  0.53944074  0.57590506  0.08170946     0.18700
C2901       C  0.53397481  0.59799700  0.07699783     0.15900
C2902       C  0.54348302  0.61505975  0.08938406    -0.18600
C2903       C  0.51939592  0.60262779  0.05970835    -0.20400
C2904       C  0.51069146  0.58562880  0.04692166    -0.13000
C2905       C  0.51599498  0.56357271  0.05139920     0.03700
C2906       C  0.53016205  0.55884833  0.06914244    -0.25100
H2907       H  0.57586356  0.58429096  0.12337168     0.08800
H2908       H  0.55891043  0.55448110  0.10246920     0.12400
H2909       H  0.53930371  0.63199516  0.08581131     0.12300
H2910       H  0.51503465  0.61943375  0.05579174     0.12100
H2911       H  0.49983972  0.58977274  0.03338503     0.12600
H2912       H  0.53461411  0.54196826  0.07264656     0.14600
C2913       C  0.55910216  0.67525289  0.15974497    -0.05500
C2914       C  0.53674193  0.67288542  0.16471273    -0.05400
C2915       C  0.52673203  0.68573303  0.18100070    -0.23500
C2916       C  0.53886886  0.70092565  0.19318493     0.18700
C2917       C  0.56116314  0.70387849  0.18826045     0.15900
C2918       C  0.57110437  0.69105677  0.17170123    -0.18600
C2919       C  0.57338860  0.71887107  0.20070446    -0.20400
C2920       C  0.56384173  0.73008545  0.21846734    -0.13000
C2921       C  0.54185509  0.72659509  0.22411619     0.03700
C2922       C  0.52931468  0.71238624  0.21091977    -0.25100
H2923       H  0.52698041  0.66031284  0.15706063     0.08800
H2924       H  0.50965799  0.68307985  0.18472370     0.12400
H2925       H  0.58850454  0.69255951  0.16896998     0.12300
H2926       H  0.59049075  0.72148327  0.19709030     0.12100
H2927       H  0.57387196  0.74110932  0.22811713     0.12600
H2928       H  0.51232181  0.70958341  0.21491587     0.14600
C2929       C  0.55127416  0.44829169  0.02321650    -0.05500
C2930       C  0.56044418  0.43281446  0.00858695    -0.05400
C2931       C  0.57609244  0.41764147  0.01593070    -0.23500
C2932       C  0.58316074  0.41779818  0.03801119     0.18700
C2933       C  0.57430282  0.43342124  0.05278546     0.15900
C2934       C  0.55831263  0.44840925  0.04539811    -0.18600
C2935       C  0.58165603  0.43385563  0.07470363    -0.20400
C2936       C  0.59762198  0.41900761  0.08196399    -0.13000
C2937       C  0.60648509  0.40300212  0.06763351     0.03700
C2938       C  0.59891083  0.40258974  0.04552714    -0.25100
H2939       H  0.55532442  0.43224230  0.99145290     0.08800
H2940       H  0.58271634  0.40582031  0.00429898     0.12400
H2941       H  0.55151334  0.46028069  0.05688597     0.12300
H2942       H  0.57517172  0.44583128  0.08625779     0.12100
H2943       H  0.60299598  0.42045171  0.09888438     0.12600
H2944       H  0.60487287  0.39031728  0.03406893     0.14600
C2945       C  0.70776109  0.27319878  0.03598571    -0.05500
C2946       C  0.70832949  0.27397911  0.05927037    -0.05400
C2947       C  0.69858703  0.29123887  0.07091387    -0.23500
C2948       C  0.68794882  0.30825190  0.05963511     0.18700
C2949       C  0.68736804  0.30800487  0.03629967     0.15900
C2950       C  0.69726531  0.29047674  0.02455869    -0.18600
C2951       C  0.67662889  0.32516814  0.02521895    -0.20400
C2952       C  0.66570655  0.34174728  0.03707203    -0.13000
C2953       C  0.66532885  0.34167357  0.06043184     0.03700
C2954       C  0.67735159  0.32513642  0.07141666    -0.25100
H2955       H  0.71622482  0.26105739  0.06865557     0.08800
H2956       H  0.69917892  0.29113097  0.08882237     0.12400
H2957       H  0.69677154  0.29028915  0.00664925     0.12300
H2958       H  0.67620736  0.32550411  0.00731294     0.12100
H2959       H  0.65729012  0.35411939  0.02758963     0.12600
H2960       H  0.67751417  0.32483344  0.08934359     0.14600
C2961       C  0.06680097  0.62673726  0.39410774    -0.05500
C2962       C  0.05246099  0.63590689  0.40971446    -0.05400
C2963       C  0.04037195  0.62244516  0.42367661    -0.23500
C2964       C  0.04210692  0.59957180  0.42190937     0.18700
C2965       C  0.05624142  0.59018826  0.40596340     0.15900
C2966       C  0.06877503  0.60385569  0.39237298    -0.18600
C2967       C  0.05745925  0.56731519  0.40380292    -0.20400
C2968       C  0.04506881  0.55386076  0.41755239    -0.13000
C2969       C  0.03144352  0.56301960  0.43388813     0.03700
C2970       C  0.02996462  0.58595662  0.43585820    -0.25100
H2971       H  0.05071918  0.65354650  0.41115315     0.08800
H2972       H  0.02955283  0.62991201  0.43572162     0.12400
H2973       H  0.07956499  0.59676377  0.38005447     0.12300
H2974       H  0.06807656  0.55983357  0.39158390     0.12100
H2975       H  0.04660886  0.53623465  0.41577813     0.12600
H2976       H  0.01942985  0.59322446  0.44829168     0.14600
C2977       C  0.07125137  0.68450503  0.33505453    -0.05500
C2978       C  0.07965575  0.70512108  0.32910824    -0.05400
C2979       C  0.06968145  0.71762922  0.31256630    -0.23500
C2980       C  0.05117315  0.70982186  0.30153442     0.18700
C2981       C  0.04227271  0.68940910  0.30753793     0.15900
C2982       C  0.05249014  0.67683538  0.32396424    -0.18600
C2983       C  0.02356420  0.68170305  0.29667499    -0.20400
C2984       C  0.01392687  0.69404300  0.27978532    -0.13000
C2985       C  0.02311181  0.71403563  0.27324619     0.03700
C2986       C  0.04168990  0.72188792  0.28428570    -0.25100
H2987       H  0.09447710  0.71140304  0.33628925     0.08800
H2988       H  0.07676258  0.73322744  0.30805158     0.12400
H2989       H  0.04616058  0.66070916  0.32772359     0.12300
H2990       H  0.01647845  0.66609346  0.30114272     0.12100
H2991       H  0.99961157  0.68771624  0.27146688     0.12600
H2992       H  0.04872729  0.73743473  0.27948278     0.14600
C2993       C  0.88978604  0.40377659  0.65867284    -0.05500
C2994       C  0.87134729  0.41172639  0.64724932    -0.05400
C2995       C  0.85764485  0.42752459  0.65681083    -0.23500
C2996       C  0.86194767  0.43551575  0.67811087     0.18700
C2997       C  0.88053786  0.42785858  0.68967186     0.15900
C2998       C  0.89439700  0.41223219  0.67984341    -0.18600
C2999       C  0.88479268  0.43570624  0.71103107    -0.20400
C3000       C  0.87053995  0.45068230  0.72104502    -0.13000
C3001       C  0.85176668  0.45816365  0.70988808     0.03700
C3002       C  0.84774101  0.45066650  0.68822729    -0.25100
H3003       H  0.86705581  0.40532413  0.63114031     0.08800
H3004       H  0.84342944  0.43316429  0.64770732     0.12400
H3005       H  0.90874997  0.40668026  0.68875951     0.12300
H3006       H  0.89897070  0.42999596  0.72014596     0.12100
H3007       H  0.87402667  0.45607724  0.73773817     0.12600
H3008       H  0.83335848  0.45628405  0.67936626     0.14600
C3009       C  0.94388632  0.39931668  0.60602786    -0.05500
C3010       C  0.96522911  0.40626759  0.61116175    -0.05400
C3011       C  0.97613092  0.42108970  0.59753313    -0.23500
C3012       C  0.96577861  0.42957518  0.57871242     0.18700
C3013       C  0.94436315  0.42273003  0.57350137     0.15900
C3014       C  0.93371558  0.40756675  0.58699274    -0.18600
C3015       C  0.93373122  0.43131730  0.55496419    -0.20400
C3016       C  0.94400198  0.44689522  0.54191468    -0.13000
C3017       C  0.96523473  0.45409117  0.54695067     0.03700
C3018       C  0.97623166  0.44507220  0.56524925    -0.25100
H3019       H  0.97346128  0.40061814  0.62594828     0.08800
H3020       H  0.99248745  0.42618342  0.60192324     0.12400
H3021       H  0.91757924  0.40214198  0.58246936     0.12300
H3022       H  0.91734116  0.42621504  0.55071284     0.12100
H3023       H  0.93518371  0.45336646  0.52780058     0.12600
H3024       H  0.99257400  0.45048289  0.56931571     0.14600
C3025       C  0.95795548  0.29233657  0.73084977    -0.05500
C3026       C  0.93501512  0.29336892  0.72964825    -0.05400
C3027       C  0.92460533  0.30414719  0.71211363    -0.23500
C3028       C  0.93694811  0.31396476  0.69538029     0.18700
C3029       C  0.95993765  0.31220428  0.69600489     0.15900
C3030       C  0.97029112  0.30147110  0.71368118    -0.18600
C3031       C  0.97227680  0.32160917  0.67916242    -0.20400
C3032       C  0.96213913  0.33389520  0.66260446    -0.13000
C3033       C  0.93928339  0.33735195  0.66257371     0.03700
C3034       C  0.92678055  0.32619472  0.67852109    -0.25100
H3035       H  0.92509144  0.28631658  0.74257806     0.08800
H3036       H  0.90693968  0.30518712  0.71188915     0.12400
H3037       H  0.98796450  0.30047046  0.71419448     0.12300
H3038       H  0.98990555  0.31993140  0.67907497     0.12100
H3039       H  0.97272941  0.34075229  0.65031496     0.12600
H3040       H  0.90917070  0.32813260  0.67853558     0.14600
C3041       C  0.89733457  0.44391874  0.37370208    -0.05500
C3042       C  0.91582398  0.45326655  0.36393484    -0.05400
C3043       C  0.93128003  0.46419730  0.37699085    -0.23500
C3044       C  0.92814763  0.46634059  0.39991575     0.18700
C3045       C  0.90922059  0.45733257  0.40961456     0.15900
C3046       C  0.89419218  0.44589392  0.39653103    -0.18600
C3047       C  0.90554287  0.45991803  0.43227178    -0.20400
C3048       C  0.92053629  0.47110881  0.44536897    -0.13000
C3049       C  0.93978392  0.47967275  0.43623055     0.03700
C3050       C  0.94350277  0.47724394  0.41335424    -0.25100
H3051       H  0.91846027  0.45174873  0.34629716     0.08800
H3052       H  0.94560558  0.47101943  0.36917406     0.12400
H3053       H  0.87981546  0.43877576  0.40403477     0.12300
H3054       H  0.89106204  0.45321514  0.43991442     0.12100
H3055       H  0.91726831  0.47255755  0.46290000     0.12600
H3056       H  0.95821456  0.48382759  0.40605848     0.14600
C3057       C  0.80270914  0.56320906  0.69245113    -0.05500
C3058       C  0.79168394  0.58347454  0.69157440    -0.05400
C3059       C  0.79782557  0.59947307  0.67623535    -0.23500
C3060       C  0.81545461  0.59568634  0.66186434     0.18700
C3061       C  0.82684377  0.57548641  0.66287368     0.15900
C3062       C  0.82021977  0.55930323  0.67790371    -0.18600
C3063       C  0.84482116  0.57188296  0.64898581    -0.20400
C3064       C  0.85142274  0.58805507  0.63412010    -0.13000
C3065       C  0.84004768  0.60809267  0.63258279     0.03700
C3066       C  0.82202010  0.61178012  0.64665233    -0.25100
H3067       H  0.77816422  0.58684050  0.70261409     0.08800
H3068       H  0.78891126  0.61488304  0.67575103     0.12400
H3069       H  0.82904299  0.54383745  0.67865838     0.12300
H3070       H  0.85381101  0.55652266  0.64961746     0.12100
H3071       H  0.86521663  0.58459689  0.62352372     0.12600
H3072       H  0.81328040  0.62728239  0.64604237     0.14600
C3073       C  0.88270358  0.60888222  0.57039454    -0.05500
C3074       C  0.87931608  0.58633434  0.57305959    -0.05400
C3075       C  0.89241363  0.57108859  0.56183868    -0.23500
C3076       C  0.90931451  0.57821562  0.54800667     0.18700
C3077       C  0.91299179  0.60094479  0.54547320     0.15900
C3078       C  0.89950682  0.61615415  0.55653243    -0.18600
C3079       C  0.93022680  0.60804615  0.53210351    -0.20400
C3080       C  0.94376991  0.59280998  0.52141395    -0.13000
C3081       C  0.94017628  0.57016808  0.52361218     0.03700
C3082       C  0.92275162  0.56301223  0.53689329    -0.25100
H3083       H  0.86633891  0.58054069  0.58362579     0.08800
H3084       H  0.88939779  0.55374454  0.56405952     0.12400
H3085       H  0.90225239  0.63360284  0.55468444     0.12300
H3086       H  0.93336538  0.62538911  0.53007398     0.12100
H3087       H  0.95710552  0.59877396  0.51140539     0.12600
H3088       H  0.91995290  0.54560949  0.53902960     0.14600
C3089       C  0.05615513  0.45417342  0.47082666    -0.05500
C3090       C  0.07414258  0.44921066  0.48445337    -0.05400
C3091       C  0.09129259  0.43597372  0.47662959    -0.23500
C3092       C  0.09067698  0.42731683  0.45509944     0.18700
C3093       C  0.07218171  0.43138358  0.44172608     0.15900
C3094       C  0.05514261  0.44473185  0.44960615    -0.18600
C3095       C  0.07112137  0.42232287  0.42050069    -0.20400
C3096       C  0.08845295  0.40981455  0.41229279    -0.13000
C3097       C  0.10757375  0.40646063  0.42485836     0.03700
C3098       C  0.10833422  0.41502657  0.44655544    -0.25100
H3099       H  0.07530833  0.45614291  0.50090398     0.08800
H3100       H  0.10520830  0.43284815  0.48726970     0.12400
H3101       H  0.04125085  0.44809992  0.43898259     0.12300
H3102       H  0.05685543  0.42492104  0.41018809     0.12100
H3103       H  0.08653128  0.40261646  0.39607978     0.12600
H3104       H  0.12275596  0.41265060  0.45665428     0.14600
C3105       C  0.10053753  0.57643351  0.61050782    -0.05500
C3106       C  0.09226470  0.55584616  0.61697263    -0.05400
C3107       C  0.07771643  0.54430171  0.60352010    -0.23500
C3108       C  0.07061695  0.55319280  0.58342822     0.18700
C3109       C  0.07794284  0.57421132  0.57714905     0.15900
C3110       C  0.09290360  0.58558449  0.59056711    -0.18600
C3111       C  0.07036507  0.58344557  0.55737613    -0.20400
C3112       C  0.05597222  0.57187966  0.54381403    -0.13000
C3113       C  0.04903020  0.55065544  0.54949400     0.03700
C3114       C  0.05637615  0.54143321  0.56949890    -0.25100
H3115       H  0.09689789  0.54844932  0.63252138     0.08800
H3116       H  0.07202340  0.52838819  0.60886494     0.12400
H3117       H  0.09889251  0.60127085  0.58504958     0.12300
H3118       H  0.07564536  0.59959593  0.55232412     0.12100
H3119       H  0.05056935  0.57947622  0.52857023     0.12600
H3120       H  0.05095918  0.52523424  0.57426262     0.14600
C3121       C  0.16353104  0.57768452  0.66495120    -0.05500
C3122       C  0.17432445  0.55987297  0.65466524    -0.05400
C3123       C  0.19204489  0.54942199  0.66463981    -0.23500
C3124       C  0.19975450  0.55666752  0.68510242     0.18700
C3125       C  0.18887758  0.57407423  0.69608376     0.15900
C3126       C  0.17079368  0.58444664  0.68602278    -0.18600
C3127       C  0.19675397  0.58123903  0.71662799    -0.20400
C3128       C  0.21530565  0.57144176  0.72599027    -0.13000
C3129       C  0.22649633  0.55443963  0.71490196     0.03700
C3130       C  0.21847812  0.54705984  0.69448057    -0.25100
H3131       H  0.16961777  0.55461265  0.63823557     0.08800
H3132       H  0.20016780  0.53611319  0.65597126     0.12400
H3133       H  0.16338480  0.59840781  0.69417537     0.12300
H3134       H  0.18867851  0.59451947  0.72538254     0.12100
H3135       H  0.22104247  0.57735563  0.74184837     0.12600
H3136       H  0.22674279  0.53376362  0.68591017     0.14600
C3137       C  0.96228238  0.71730141  0.76435418    -0.05500
C3138       C  0.96821910  0.69513170  0.76721592    -0.05400
C3139       C  0.95987002  0.68295441  0.78469194    -0.23500
C3140       C  0.94529874  0.69261911  0.79965865     0.18700
C3141       C  0.93931315  0.71488544  0.79721816     0.15900
C3142       C  0.94790231  0.72715856  0.77961928    -0.18600
C3143       C  0.92450119  0.72430816  0.81217761    -0.20400
C3144       C  0.91489925  0.71154926  0.82870712    -0.13000
C3145       C  0.92007112  0.68905310  0.83072785     0.03700
C3146       C  0.93603436  0.68008456  0.81653467    -0.25100
H3147       H  0.97931339  0.68705460  0.75584830     0.08800
H3148       H  0.96458984  0.66586404  0.78631150     0.12400
H3149       H  0.94321267  0.74422580  0.77769684     0.12300
H3150       H  0.91981467  0.74141454  0.81068269     0.12100
H3151       H  0.90295710  0.71941613  0.83915863     0.12600
H3152       H  0.94024965  0.66282013  0.81782058     0.14600
C3153       C  0.06946282  0.83334662  0.83687553    -0.05500
C3154       C  0.08004562  0.81377562  0.83011086    -0.05400
C3155       C  0.07149598  0.80075019  0.81325021    -0.23500
C3156       C  0.05243302  0.80711521  0.80220579     0.18700
C3157       C  0.04112422  0.82619146  0.80910159     0.15900
C3158       C  0.04967500  0.83915044  0.82633081    -0.18600
C3159       C  0.02198757  0.83248775  0.79794146    -0.20400
C3160       C  0.01462162  0.82044393  0.77967514    -0.13000
C3161       C  0.02636146  0.80200292  0.77206543     0.03700
C3162       C  0.04506691  0.79520995  0.78376101    -0.25100
H3163       H  0.09575138  0.80891111  0.83658867     0.08800
H3164       H  0.08042652  0.78620178  0.80812684     0.12400
H3165       H  0.04159602  0.85442790  0.83066845     0.12300
H3166       H  0.01297174  0.84698539  0.80303457     0.12100
H3167       H  0.00005564  0.82595123  0.77109965     0.12600
H3168       H  0.05409985  0.78083620  0.77831159     0.14600
C3169       C  0.06210317  0.69959395  0.69326291    -0.05500
C3170       C  0.08270536  0.69859755  0.70349679    -0.05400
C3171       C  0.09825268  0.68286074  0.69687535    -0.23500
C3172       C  0.09365784  0.66815276  0.67955486     0.18700
C3173       C  0.07318161  0.66942893  0.66884360     0.15900
C3174       C  0.05753450  0.68488878  0.67590387    -0.18600
C3175       C  0.06864579  0.65522706  0.65119265    -0.20400
C3176       C  0.08410846  0.63969362  0.64431517    -0.13000
C3177       C  0.10444340  0.63787131  0.65497522     0.03700
C3178       C  0.10911390  0.65226162  0.67267726    -0.25100
H3179       H  0.08666932  0.70979800  0.71680583     0.08800
H3180       H  0.11389936  0.68225444  0.70524055     0.12400
H3181       H  0.04185953  0.68573626  0.66757686     0.12300
H3182       H  0.05304177  0.65604038  0.64275232     0.12100
H3183       H  0.07986067  0.62870199  0.63093232     0.12600
H3184       H  0.12481396  0.65127681  0.68091093     0.14600
C3185       C  0.89497437  0.66171598  0.62153091    -0.05500
C3186       C  0.90318366  0.65259860  0.64114147    -0.05400
C3187       C  0.92056372  0.66257931  0.65226120    -0.23500
C3188       C  0.92999780  0.68177944  0.64386713     0.18700
C3189       C  0.92228732  0.69063011  0.62375812     0.15900
C3190       C  0.90501340  0.68045163  0.61266554    -0.18600
C3191       C  0.93161743  0.70981789  0.61533308    -0.20400
C3192       C  0.94810969  0.72052833  0.62702886    -0.13000
C3193       C  0.95562893  0.71218479  0.64731656     0.03700
C3194       C  0.94665367  0.69255417  0.65545637    -0.25100
H3195       H  0.89568759  0.63822245  0.64825549     0.08800
H3196       H  0.92632915  0.65554417  0.66765868     0.12400
H3197       H  0.89917187  0.68733381  0.59721772     0.12300
H3198       H  0.92584684  0.71679628  0.59990747     0.12100
H3199       H  0.95460445  0.73563204  0.62043618     0.12600
H3200       H  0.95223730  0.68589318  0.67109650     0.14600
C3201       C  0.72579903  0.23463508  0.53881356    -0.05500
C3202       C  0.73812982  0.22128181  0.55321340    -0.05400
C3203       C  0.72859563  0.20335821  0.56390672    -0.23500
C3204       C  0.70651434  0.19832733  0.56041748     0.18700
C3205       C  0.69407401  0.21148727  0.54582072     0.15900
C3206       C  0.70371312  0.22947477  0.53519630    -0.18600
C3207       C  0.67209806  0.20656914  0.54216718    -0.20400
C3208       C  0.66238523  0.18906011  0.55311199    -0.13000
C3209       C  0.67424862  0.17589271  0.56812430     0.03700
C3210       C  0.69660466  0.18059768  0.57144841    -0.25100
H3211       H  0.75517153  0.22475214  0.55633782     0.08800
H3212       H  0.73849164  0.19349276  0.57499950     0.12400
H3213       H  0.69393074  0.23948532  0.52412173     0.12300
H3214       H  0.66229284  0.21643736  0.53099213     0.12100
H3215       H  0.64522281  0.18599642  0.55017770     0.12600
H3216       H  0.70639221  0.17101015  0.58276199     0.14600
C3217       C  0.69957160  0.31018123  0.43680759    -0.05500
C3218       C  0.70002904  0.30164297  0.41522450    -0.05400
C3219       C  0.68371563  0.30735390  0.39994147    -0.23500
C3220       C  0.66707745  0.32224408  0.40580701     0.18700
C3221       C  0.66705843  0.33153782  0.42724844     0.15900
C3222       C  0.68300898  0.32512026  0.44269239    -0.18600
C3223       C  0.65115468  0.34721907  0.43287654    -0.20400
C3224       C  0.63514031  0.35337672  0.41758710    -0.13000
C3225       C  0.63439654  0.34363141  0.39657784     0.03700
C3226       C  0.65050559  0.32809554  0.39068759    -0.25100
H3227       H  0.71283200  0.29030507  0.41031406     0.08800
H3228       H  0.68419269  0.30024928  0.38351427     0.12400
H3229       H  0.68288904  0.33217774  0.45916364     0.12300
H3230       H  0.65107355  0.35470416  0.44913765     0.12100
H3231       H  0.62291804  0.36538684  0.42239587     0.12600
H3232       H  0.65025261  0.32081231  0.37432527     0.14600
C3233       C  0.82168939  0.31837069  0.55613625    -0.05500
C3234       C  0.82848263  0.30272745  0.57181321    -0.05400
C3235       C  0.84492977  0.30758885  0.58720117    -0.23500
C3236       C  0.85527750  0.32807860  0.58701087     0.18700
C3237       C  0.84892860  0.34375300  0.57106611     0.15900
C3238       C  0.83208961  0.33893392  0.55592629    -0.18600
C3239       C  0.85956799  0.36398927  0.57048609    -0.20400
C3240       C  0.87618769  0.36878116  0.58559961    -0.13000
C3241       C  0.88254207  0.35362736  0.60203187     0.03700
C3242       C  0.87181526  0.33314262  0.60247460    -0.25100
H3243       H  0.82081549  0.28679166  0.57240837     0.08800
H3244       H  0.84959012  0.29527086  0.59923073     0.12400
H3245       H  0.82725786  0.35111867  0.54380944     0.12300
H3246       H  0.85511063  0.37616176  0.55822067     0.12100
H3247       H  0.88401561  0.38443745  0.58401145     0.12600
H3248       H  0.87596943  0.32113720  0.61495065     0.14600
C3249       C  0.70629880  0.34820504  0.54399395    -0.05500
C3250       C  0.68533186  0.33911385  0.54661891    -0.05400
C3251       C  0.67075829  0.34743365  0.56229676    -0.23500
C3252       C  0.67674707  0.36510080  0.57570928     0.18700
C3253       C  0.69743306  0.37488508  0.57265391     0.15900
C3254       C  0.71204595  0.36645357  0.55681937    -0.18600
C3255       C  0.70332092  0.39276862  0.58573149    -0.20400
C3256       C  0.68915191  0.40061411  0.60193380    -0.13000
C3257       C  0.66886223  0.39048064  0.60591608     0.03700
C3258       C  0.66258858  0.37291475  0.59233166    -0.25100
H3259       H  0.68027527  0.32514200  0.53683927     0.08800
H3260       H  0.65494708  0.33979028  0.56417148     0.12400
H3261       H  0.72808555  0.37364212  0.55500805     0.12300
H3262       H  0.71892316  0.40072864  0.58345208     0.12100
H3263       H  0.69420659  0.41487721  0.61122781     0.12600
H3264       H  0.64703466  0.36498878  0.59498158     0.14600
C3265       C  0.80698318  0.35433962  0.45120064    -0.05500
C3266       C  0.82555017  0.34315105  0.44327486    -0.05400
C3267       C  0.83898614  0.35254450  0.42737484    -0.23500
C3268       C  0.83388178  0.37320792  0.41874129     0.18700
C3269       C  0.81570203  0.38503376  0.42719116     0.15900
C3270       C  0.80251575  0.37566120  0.44369616    -0.18600
C3271       C  0.81038660  0.40550486  0.41813036    -0.20400
C3272       C  0.82225614  0.41363523  0.40026535    -0.13000
C3273       C  0.83980243  0.40157796  0.39123265     0.03700
C3274       C  0.84599274  0.38169392  0.40103971    -0.25100
H3275       H  0.82922967  0.32665981  0.44887872     0.08800
H3276       H  0.85282269  0.34324749  0.42117055     0.12400
H3277       H  0.78804096  0.38422057  0.44948682     0.12300
H3278       H  0.79663350  0.41489871  0.42437243     0.12100
H3279       H  0.81743913  0.42924849  0.39320362     0.12600
H3280       H  0.85936962  0.37222995  0.39407716     0.14600
C3281       C  0.20874784  0.94420062  0.69424912    -0.05500
C3282       C  0.21654418  0.92248643  0.69516685    -0.05400
C3283       C  0.20979470  0.90699173  0.67941942    -0.23500
C3284       C  0.19456611  0.91280436  0.66298925     0.18700
C3285       C  0.18644852  0.93456022  0.66224915     0.15900
C3286       C  0.19394558  0.95013825  0.67750053    -0.18600
C3287       C  0.17052673  0.94032191  0.64660709    -0.20400
C3288       C  0.16254848  0.92466924  0.63187574    -0.13000
C3289       C  0.17072035  0.90312828  0.63210394     0.03700
C3290       C  0.18693484  0.89726373  0.64757145    -0.25100
H3291       H  0.22787508  0.91754804  0.70801790     0.08800
H3292       H  0.21612004  0.89037714  0.68037095     0.12400
H3293       H  0.18751377  0.96674823  0.67691811     0.12300
H3294       H  0.16405019  0.95689441  0.64593006     0.12100
H3295       H  0.15019478  0.92950218  0.61997306     0.12600
H3296       H  0.19314296  0.88057194  0.64792103     0.14600
C3297       C  0.05619356  0.79979603  0.65302106    -0.05500
C3298       C  0.05874116  0.79495562  0.63048120    -0.05400
C3299       C  0.07419222  0.80602758  0.61787401    -0.23500
C3300       C  0.08707441  0.82236929  0.62754499     0.18700
C3301       C  0.08429625  0.82776348  0.65009779     0.15900
C3302       C  0.06903561  0.81625085  0.66276513    -0.18600
C3303       C  0.09689334  0.84451293  0.65955564    -0.20400
C3304       C  0.11241050  0.85551881  0.64685117    -0.13000
C3305       C  0.11573757  0.84967117  0.62467886     0.03700
C3306       C  0.10280829  0.83328061  0.61504841    -0.25100
H3307       H  0.04909062  0.78225753  0.62271733     0.08800
H3308       H  0.07612026  0.80175951  0.60058802     0.12400
H3309       H  0.06702111  0.82019679  0.68012971     0.12300
H3310       H  0.09487534  0.84895563  0.67678515     0.12100
H3311       H  0.12227420  0.86811523  0.65450426     0.12600
H3312       H  0.10503051  0.82901252  0.59778636     0.14600
C3313       C  0.11810928  0.90568172  0.57773846    -0.05500
C3314       C  0.09673102  0.90445178  0.58593186    -0.05400
C3315       C  0.07990346  0.91664470  0.57618519    -0.23500
C3316       C  0.08425309  0.93042466  0.55822166     0.18700
C3317       C  0.10590139  0.93244722  0.55044286     0.15900
C3318       C  0.12266717  0.91996626  0.56017119    -0.18600
C3319       C  0.11034184  0.94671877  0.53290381    -0.20400
C3320       C  0.09344976  0.95871528  0.52300789    -0.13000
C3321       C  0.07177652  0.95633557  0.53020236     0.03700
C3322       C  0.06731853  0.94216638  0.54788806    -0.25100
H3323       H  0.09285968  0.89337562  0.59931435     0.08800
H3324       H  0.06343631  0.91503107  0.58246810     0.12400
H3325       H  0.13920680  0.92114675  0.55394413     0.12300
H3326       H  0.12686752  0.94862511  0.52686354     0.12100
H3327       H  0.09731413  0.96977538  0.50960751     0.12600
H3328       H  0.05074113  0.94063969  0.55392402     0.14600
C3329       C  0.11729473  0.10849032  0.66560005    -0.05500
C3330       C  0.10481162  0.09717075  0.68134642    -0.05400
C3331       C  0.11369029  0.07955111  0.69304726    -0.23500
C3332       C  0.13529532  0.07296497  0.68931244     0.18700
C3333       C  0.14757997  0.08342422  0.67259878     0.15900
C3334       C  0.13840265  0.10099344  0.66063343    -0.18600
C3335       C  0.16915451  0.07676314  0.66884462    -0.20400
C3336       C  0.17876868  0.06066400  0.68213120    -0.13000
C3337       C  0.16704129  0.05083847  0.69950359     0.03700
C3338       C  0.14505399  0.05671893  0.70259804    -0.25100
H3339       H  0.08826243  0.10237037  0.68502732     0.08800
H3340       H  0.10389445  0.07157081  0.70552990     0.12400
H3341       H  0.14806980  0.10960112  0.64847271     0.12300
H3342       H  0.17881253  0.08444721  0.65605982     0.12100
H3343       H  0.19571724  0.05643144  0.67918921     0.12600
H3344       H  0.13575080  0.04919918  0.71575354     0.14600
C3345       C  0.07194256  0.11963387  0.61210842    -0.05500
C3346       C  0.05153273  0.11156760  0.61890754    -0.05400
C3347       C  0.04052100  0.09597493  0.60630726    -0.23500
C3348       C  0.04973946  0.08803138  0.58670225     0.18700
C3349       C  0.07048731  0.09561854  0.57999601     0.15900
C3350       C  0.08145842  0.11135628  0.59273585    -0.18600
C3351       C  0.07985759  0.08743101  0.56056940    -0.20400
C3352       C  0.06868220  0.07212591  0.54774692    -0.13000
C3353       C  0.04783133  0.06479025  0.55399263     0.03700
C3354       C  0.03850749  0.07273386  0.57364099    -0.25100
H3355       H  0.04414422  0.11707970  0.63420426     0.08800
H3356       H  0.02479977  0.09014697  0.61189887     0.12400
H3357       H  0.09719608  0.11738075  0.58739835     0.12300
H3358       H  0.09576641  0.09295694  0.55520844     0.12100
H3359       H  0.07629299  0.06626537  0.53268613     0.12600
H3360       H  0.02257725  0.06702896  0.57876443     0.14600
C3361       C  0.07246862  0.17573097  0.67193884    -0.05500
C3362       C  0.05468378  0.16487090  0.68178153    -0.05400
C3363       C  0.04293202  0.17436723  0.69891475    -0.23500
C3364       C  0.04885820  0.19487743  0.70704494     0.18700
C3365       C  0.06624427  0.20643919  0.69717659     0.15900
C3366       C  0.07792649  0.19686488  0.67952564    -0.18600
C3367       C  0.07197835  0.22706433  0.70564490    -0.20400
C3368       C  0.06080209  0.23587334  0.72383281    -0.13000
C3369       C  0.04389667  0.22408327  0.73396360     0.03700
C3370       C  0.03791820  0.20368290  0.72529965    -0.25100
H3371       H  0.05035664  0.14840557  0.67672199     0.08800
H3372       H  0.02964667  0.16530979  0.70628931     0.12400
H3373       H  0.09171964  0.20544318  0.67267434     0.12300
H3374       H  0.08520239  0.23626524  0.69836289     0.12100
H3375       H  0.06559636  0.25174818  0.73018785     0.12600
H3376       H  0.02467220  0.19461430  0.73276204     0.14600
C3377       C  0.05401808  0.03975445  0.43578347    -0.05500
C3378       C  0.05113575  0.03251880  0.41393948    -0.05400
C3379       C  0.06314242  0.04181987  0.39671121    -0.23500
C3380       C  0.07783577  0.05888261  0.40099177     0.18700
C3381       C  0.08015935  0.06690151  0.42280757     0.15900
C3382       C  0.06847968  0.05708743  0.44008379    -0.18600
C3383       C  0.09426229  0.08447537  0.42698623    -0.20400
C3384       C  0.10639431  0.09363786  0.40981171    -0.13000
C3385       C  0.10488941  0.08517569  0.38827012     0.03700
C3386       C  0.09039639  0.06791697  0.38390139    -0.25100
H3387       H  0.03997382  0.01929321  0.41028254     0.08800
H3388       H  0.06100416  0.03561046  0.38006244     0.12400
H3389       H  0.07047643  0.06305241  0.45686036     0.12300
H3390       H  0.09610320  0.09095736  0.44356997     0.12100
H3391       H  0.11755702  0.10685580  0.41352116     0.12600
H3392       H  0.08896786  0.06152325  0.36723212     0.14600
C3393       C  0.16163370  0.07882101  0.32633100    -0.05500
C3394       C  0.16063948  0.05570536  0.32524490    -0.05400
C3395       C  0.17640079  0.04360156  0.31368386    -0.23500
C3396       C  0.19350984  0.05421258  0.30285351     0.18700
C3397       C  0.19392318  0.07735587  0.30247161     0.15900
C3398       C  0.17786080  0.08944584  0.31385732    -0.18600
C3399       C  0.21089363  0.08802609  0.29143072    -0.20400
C3400       C  0.22776177  0.07590254  0.28163666    -0.13000
C3401       C  0.22803887  0.05283570  0.28265345     0.03700
C3402       C  0.21049596  0.04208547  0.29291719    -0.25100
H3403       H  0.14811155  0.04654551  0.33349524     0.08800
H3404       H  0.17552410  0.02585284  0.31374113     0.12400
H3405       H  0.17865054  0.10721028  0.31403661     0.12300
H3406       H  0.21141342  0.10577732  0.29082089     0.12100
H3407       H  0.24088304  0.08467463  0.27367601     0.12600
H3408       H  0.21025321  0.02432049  0.29357818     0.14600
C3409       C  0.89134001  0.88176872  0.66362542    -0.05500
C3410       C  0.89745288  0.88181781  0.68615866    -0.05400
C3411       C  0.91057163  0.86518689  0.69507483    -0.23500
C3412       C  0.91852396  0.84822430  0.68167533     0.18700
C3413       C  0.91274707  0.84784049  0.65903734     0.15900
C3414       C  0.89901055  0.86436802  0.65022849    -0.18600
C3415       C  0.92119145  0.83114549  0.64549784    -0.20400
C3416       C  0.93565874  0.81547640  0.65413672    -0.13000
C3417       C  0.94174030  0.81580485  0.67662082     0.03700
C3418       C  0.93267140  0.83204406  0.69042265    -0.25100
H3419       H  0.89264529  0.89500003  0.69710092     0.08800
H3420       H  0.91494677  0.86592426  0.71241890     0.12400
H3421       H  0.89446707  0.86355051  0.63296976     0.12300
H3422       H  0.91698692  0.83046321  0.62810763     0.12100
H3423       H  0.94221446  0.80306820  0.64310233     0.12600
H3424       H  0.93726940  0.83260578  0.70772115     0.14600
C3425       C  0.90295906  0.93870108  0.61500358    -0.05500
C3426       C  0.91939702  0.92393130  0.60805710    -0.05400
C3427       C  0.93624661  0.93066262  0.59401930    -0.23500
C3428       C  0.93737328  0.95246249  0.58678520     0.18700
C3429       C  0.92153758  0.96770807  0.59423856     0.15900
C3430       C  0.90442757  0.96076338  0.60809759    -0.18600
C3431       C  0.92289614  0.98963470  0.58744530    -0.20400
C3432       C  0.93944866  0.99630969  0.57307621    -0.13000
C3433       C  0.95496893  0.98121348  0.56490619     0.03700
C3434       C  0.95389766  0.95923226  0.57208149    -0.25100
H3435       H  0.91948457  0.90706797  0.61353329     0.08800
H3436       H  0.94840540  0.91875446  0.58879248     0.12400
H3437       H  0.89202034  0.97252687  0.61297317     0.12300
H3438       H  0.91100187  0.00162833  0.59307500     0.12100
H3439       H  0.93975113  0.01330611  0.56793007     0.12600
H3440       H  0.96577778  0.94737207  0.56612168     0.14600
C3441       C  0.83791619  0.94578689  0.67001310    -0.05500
C3442       C  0.83750910  0.96889107  0.67101528    -0.05400
C3443       C  0.82046215  0.98004765  0.68187365    -0.23500
C3444       C  0.80335782  0.96843475  0.69182250     0.18700
C3445       C  0.80405930  0.94530506  0.69171572     0.15900
C3446       C  0.82131712  0.93425593  0.68115155    -0.18600
C3447       C  0.78707492  0.93351342  0.70149035    -0.20400
C3448       C  0.76927564  0.94448872  0.71091381    -0.13000
C3449       C  0.76799705  0.96755792  0.71086587     0.03700
C3450       C  0.78535223  0.97945581  0.70142949    -0.25100
H3451       H  0.84968996  0.97857768  0.66277000     0.08800
H3452       H  0.82031371  0.99782125  0.68188734     0.12400
H3453       H  0.82122919  0.91647339  0.68051541     0.12300
H3454       H  0.78739204  0.91573365  0.70157840     0.12100
H3455       H  0.75637905  0.93480261  0.71813432     0.12600
H3456       H  0.78478696  0.99722676  0.70137499     0.14600
C3457       C  0.89798673  0.10784027  0.42985019    -0.05500
C3458       C  0.90270316  0.08845275  0.41825011    -0.05400
C3459       C  0.91673932  0.07269277  0.42734730    -0.23500
C3460       C  0.92631342  0.07615362  0.44815381     0.18700
C3461       C  0.92158287  0.09554657  0.46002528     0.15900
C3462       C  0.90758734  0.11128565  0.45075627    -0.18600
C3463       C  0.93107244  0.09895881  0.48088465    -0.20400
C3464       C  0.94547852  0.08340595  0.48975747    -0.13000
C3465       C  0.95070757  0.06431277  0.47782260     0.03700
C3466       C  0.94080053  0.06069137  0.45712265    -0.25100
H3467       H  0.89530911  0.08532720  0.40229426     0.08800
H3468       H  0.92014775  0.05782918  0.41809691     0.12400
H3469       H  0.90446684  0.12638388  0.45972166     0.12300
H3470       H  0.92752809  0.11374113  0.49021956     0.12100
H3471       H  0.95292064  0.08656130  0.50569444     0.12600
H3472       H  0.94453045  0.04591451  0.44783462     0.14600
C3473       C  0.80009742  0.23828702  0.45769528    -0.05500
C3474       C  0.79712334  0.23579180  0.43474898    -0.05400
C3475       C  0.80660422  0.21819597  0.42351184    -0.23500
C3476       C  0.81924883  0.20279355  0.43501106     0.18700
C3477       C  0.82229537  0.20507286  0.45803794     0.15900
C3478       C  0.81272241  0.22279345  0.46925669    -0.18600
C3479       C  0.83520837  0.18981856  0.46941077    -0.20400
C3480       C  0.84550242  0.17275577  0.45800968    -0.13000
C3481       C  0.84283528  0.17040654  0.43494588     0.03700
C3482       C  0.82939321  0.18551412  0.42370824    -0.25100
H3483       H  0.78744769  0.24746923  0.42539104     0.08800
H3484       H  0.80415818  0.21671938  0.40583130     0.12400
H3485       H  0.81516528  0.22452399  0.48691909     0.12300
H3486       H  0.83787133  0.19144272  0.48704598     0.12100
H3487       H  0.85627805  0.16231714  0.46744342     0.12600
H3488       H  0.82764721  0.18436306  0.40590731     0.14600
C3489       C  0.93693704  0.88724548  0.40801043    -0.05500
C3490       C  0.95254826  0.87779669  0.42219934    -0.05400
C3491       C  0.96433743  0.89088194  0.43706621    -0.23500
C3492       C  0.96106363  0.91371563  0.43760477     0.18700
C3493       C  0.94552072  0.92327620  0.42315580     0.15900
C3494       C  0.93337586  0.90999184  0.40876181    -0.18600
C3495       C  0.94256611  0.94604767  0.42304206    -0.20400
C3496       C  0.95499759  0.95931881  0.43693259    -0.13000
C3497       C  0.97042158  0.95016538  0.45158897     0.03700
C3498       C  0.97321593  0.92720626  0.45202877    -0.25100
H3499       H  0.95545156  0.86025350  0.42192268     0.08800
H3500       H  0.97617827  0.88318967  0.44793055     0.12400
H3501       H  0.92158003  0.91744125  0.39764758     0.12300
H3502       H  0.93076241  0.95363955  0.41205338     0.12100
H3503       H  0.95230323  0.97689097  0.43637070     0.12600
H3504       H  0.98507656  0.91994192  0.46317572     0.14600
C3505       C  0.92885561  0.83272073  0.34486281    -0.05500
C3506       C  0.92647860  0.80973876  0.34567143    -0.05400
C3507       C  0.93346557  0.79646393  0.32808806    -0.23500
C3508       C  0.94269749  0.80584595  0.30917208     0.18700
C3509       C  0.94636432  0.82866960  0.30871690     0.15900
C3510       C  0.94035766  0.84170411  0.32687088    -0.18600
C3511       C  0.95523434  0.83826896  0.28977651    -0.20400
C3512       C  0.96023653  0.82542485  0.27133099    -0.13000
C3513       C  0.95676688  0.80262126  0.27147645     0.03700
C3514       C  0.94810041  0.79289894  0.29063908    -0.25100
H3515       H  0.91914579  0.80178421  0.35970611     0.08800
H3516       H  0.93101782  0.77890585  0.32901574     0.12400
H3517       H  0.94331255  0.85920832  0.32629929     0.12300
H3518       H  0.95802718  0.85578913  0.28909642     0.12100
H3519       H  0.96699358  0.83342392  0.25694334     0.12600
H3520       H  0.94547954  0.77534305  0.29112866     0.14600
C3521       C  0.70541412  0.73478994  0.47034433    -0.05500
C3522       C  0.68270612  0.73395236  0.47374598    -0.05400
C3523       C  0.67045645  0.71652334  0.46558174    -0.23500
C3524       C  0.68061192  0.69958251  0.45372030     0.18700
C3525       C  0.70342302  0.69991865  0.45049532     0.15900
C3526       C  0.71574725  0.71744472  0.45894462    -0.18600
C3527       C  0.71339560  0.68296787  0.43843463    -0.20400
C3528       C  0.70078747  0.66652232  0.42862821    -0.13000
C3529       C  0.67783593  0.66653962  0.43087286     0.03700
C3530       C  0.66815253  0.68273347  0.44440212    -0.25100
H3531       H  0.67425796  0.74696176  0.48253254     0.08800
H3532       H  0.65295817  0.71652101  0.46819189     0.12400
H3533       H  0.73324189  0.71774818  0.45631273     0.12300
H3534       H  0.73092646  0.68274749  0.43605030     0.12100
H3535       H  0.70936373  0.65425097  0.41914631     0.12600
H3536       H  0.65059004  0.68285135  0.44667381     0.14600
C3537       C  0.79458668  0.73563382  0.53615871    -0.05500
C3538       C  0.81052054  0.72595178  0.52244515    -0.05400
C3539       C  0.82238572  0.70757503  0.52947874    -0.23500
C3540       C  0.81838336  0.69835786  0.55027775     0.18700
C3541       C  0.80250560  0.70802723  0.56420681     0.15900
C3542       C  0.79085184  0.72666077  0.55716889    -0.18600
C3543       C  0.79869825  0.69906606  0.58508649    -0.20400
C3544       C  0.81066467  0.68087543  0.59225539    -0.13000
C3545       C  0.82635972  0.67071102  0.57852932     0.03700
C3546       C  0.83028960  0.67993051  0.55754469    -0.25100
H3547       H  0.81379830  0.73256580  0.50619302     0.08800
H3548       H  0.83458081  0.70049587  0.51858858     0.12400
H3549       H  0.77858507  0.73389428  0.56788452     0.12300
H3550       H  0.78683427  0.70646466  0.59613453     0.12100
H3551       H  0.80814065  0.67530306  0.60901595     0.12600
H3552       H  0.84319583  0.67346578  0.54716807     0.14600
C3553       C  0.68819484  0.80988673  0.56636828    -0.05500
C3554       C  0.68869751  0.80263273  0.58839361    -0.05400
C3555       C  0.67346351  0.81066603  0.60374170    -0.23500
C3556       C  0.65783977  0.82645055  0.59740452     0.18700
C3557       C  0.65756266  0.83411364  0.57539443     0.15900
C3558       C  0.67243782  0.82556218  0.56003139    -0.18600
C3559       C  0.64256523  0.85041211  0.56910120    -0.20400
C3560       C  0.62764545  0.85882900  0.58436587    -0.13000
C3561       C  0.62714716  0.85082685  0.60608173     0.03700
C3562       C  0.64249512  0.83474199  0.61259619    -0.25100
H3563       H  0.70081350  0.79073494  0.59370344     0.08800
H3564       H  0.67403033  0.80469935  0.62059456     0.12400
H3565       H  0.67215063  0.83166176  0.54320410     0.12300
H3566       H  0.64230281  0.85659416  0.55231512     0.12100
H3567       H  0.61605712  0.87115078  0.57893477     0.12600
H3568       H  0.64252017  0.82874117  0.62945004     0.14600
C3569       C  0.80637120  0.81575151  0.44565318    -0.05500
C3570       C  0.80930665  0.80311344  0.42641388    -0.05400
C3571       C  0.82593755  0.80815677  0.41138642    -0.23500
C3572       C  0.84020418  0.82564765  0.41557930     0.18700
C3573       C  0.83758653  0.83813878  0.43508401     0.15900
C3574       C  0.82061223  0.83329529  0.44979624    -0.18600
C3575       C  0.85209161  0.85520622  0.43969572    -0.20400
C3576       C  0.86903540  0.85998938  0.42511555    -0.13000
C3577       C  0.87170198  0.84808168  0.40536676     0.03700
C3578       C  0.85707451  0.83083312  0.40072233    -0.25100
H3579       H  0.79855296  0.78952714  0.42285176     0.08800
H3580       H  0.82771542  0.79830514  0.39656059     0.12400
H3581       H  0.81871535  0.84300315  0.46471887     0.12300
H3582       H  0.85047136  0.86475819  0.45473809     0.12100
H3583       H  0.88026243  0.87285391  0.42963498     0.12600
H3584       H  0.85858052  0.82154748  0.38551910     0.14600
C3585       C  0.84089476  0.89504491  0.60586962    -0.05500
C3586       C  0.85063864  0.89186947  0.58511336    -0.05400
C3587       C  0.83911630  0.88148790  0.56799407    -0.23500
C3588       C  0.81773227  0.87398521  0.57145482     0.18700
C3589       C  0.80800872  0.87687257  0.59243754     0.15900
C3590       C  0.81961400  0.88723275  0.60939029    -0.18600
C3591       C  0.78689411  0.86908805  0.59631306    -0.20400
C3592       C  0.77572563  0.85784681  0.57976178    -0.13000
C3593       C  0.78521614  0.85465817  0.55891489     0.03700
C3594       C  0.80608296  0.86312204  0.55461080    -0.25100
H3595       H  0.86691566  0.89791585  0.58195056     0.08800
H3596       H  0.84690064  0.87935697  0.55206814     0.12400
H3597       H  0.81204642  0.88909855  0.62547211     0.12300
H3598       H  0.77923607  0.87120878  0.61231399     0.12100
H3599       H  0.75974063  0.85123263  0.58334571     0.12600
H3600       H  0.81358832  0.86029645  0.53863921     0.14600
C3601       C  0.69861688  0.85112180  0.45744117    -0.05500
C3602       C  0.67850366  0.84215320  0.45073220    -0.05400
C3603       C  0.66606252  0.85198729  0.43411236    -0.23500
C3604       C  0.67338997  0.87106677  0.42380335     0.18700
C3605       C  0.69310235  0.88077795  0.43093123     0.15900
C3606       C  0.70557150  0.87081456  0.44776211    -0.18600
C3607       C  0.70026431  0.89998545  0.42068644    -0.20400
C3608       C  0.68842278  0.90904358  0.40313582    -0.13000
C3609       C  0.66919539  0.89904876  0.39532786     0.03700
C3610       C  0.66157083  0.88025532  0.40613904    -0.25100
H3611       H  0.67254510  0.82709976  0.45794076     0.08800
H3612       H  0.65092320  0.84438606  0.42900618     0.12400
H3613       H  0.72094616  0.87799277  0.45278195     0.12300
H3614       H  0.71516450  0.90787019  0.42605757     0.12100
H3615       H  0.69439640  0.92396525  0.39569672     0.12600
H3616       H  0.64687366  0.87229746  0.40043655     0.14600
C3617       C  0.73588636  0.97520014  0.29307620    -0.05500
C3618       C  0.73326412  0.98335510  0.31474085    -0.05400
C3619       C  0.71499109  0.97811372  0.32729972    -0.23500
C3620       C  0.69893445  0.96437456  0.31863302     0.18700
C3621       C  0.70084858  0.95664835  0.29667217     0.15900
C3622       C  0.71921831  0.96226768  0.28388483    -0.18600
C3623       C  0.68465785  0.94289683  0.28819152    -0.20400
C3624       C  0.66785782  0.93539583  0.30182695    -0.13000
C3625       C  0.66686304  0.94142189  0.32441987     0.03700
C3626       C  0.68169753  0.95727525  0.33205215    -0.25100
H3627       H  0.74549626  0.99378261  0.32218235     0.08800
H3628       H  0.71374156  0.98433565  0.34404955     0.12400
H3629       H  0.72082447  0.95608008  0.26714857     0.12300
H3630       H  0.68546276  0.93719990  0.27122751     0.12100
H3631       H  0.65636642  0.92430221  0.29439688     0.12600
H3632       H  0.68098045  0.96254755  0.34917502     0.14600
C3633       C  0.67070972  0.06890631  0.17213613    -0.05500
C3634       C  0.67038570  0.04586398  0.17396327    -0.05400
C3635       C  0.68720913  0.03465615  0.18499745    -0.23500
C3636       C  0.70471247  0.04617833  0.19433590     0.18700
C3637       C  0.70486538  0.06928711  0.19318592     0.15900
C3638       C  0.68790278  0.08039103  0.18235132    -0.18600
C3639       C  0.72223063  0.08097117  0.20246736    -0.20400
C3640       C  0.73947186  0.06985236  0.21265719    -0.13000
C3641       C  0.73975694  0.04681572  0.21369270     0.03700
C3642       C  0.72219416  0.03504559  0.20454492    -0.25100
H3643       H  0.65765009  0.03620428  0.16654212     0.08800
H3644       H  0.68674108  0.01691139  0.18584007     0.12400
H3645       H  0.68843228  0.09813061  0.18113265     0.12300
H3646       H  0.72257189  0.09872510  0.20169444     0.12100
H3647       H  0.75274247  0.07933937  0.21953602     0.12600
H3648       H  0.72210102  0.01728577  0.20538249     0.14600
C3649       C  0.81380082  0.06158015  0.31921405    -0.05500
C3650       C  0.81106724  0.05364498  0.34086593    -0.05400
C3651       C  0.81845693  0.06560788  0.35906820    -0.23500
C3652       C  0.82893507  0.08570039  0.35601670     0.18700
C3653       C  0.83136191  0.09415392  0.33438812     0.15900
C3654       C  0.82358679  0.08215028  0.31613262    -0.18600
C3655       C  0.84192305  0.11427309  0.33139477    -0.20400
C3656       C  0.85021078  0.12571636  0.34959297    -0.13000
C3657       C  0.84817403  0.11720503  0.37099086     0.03700
C3658       C  0.83729928  0.09732858  0.37420020    -0.25100
H3659       H  0.80351611  0.03789724  0.34374975     0.08800
H3660       H  0.81636345  0.05892292  0.37550032     0.12400
H3661       H  0.82594158  0.08839324  0.29955396     0.12300
H3662       H  0.84382132  0.12111846  0.31500799     0.12100
H3663       H  0.85794939  0.14139328  0.34699880     0.12600
H3664       H  0.83558132  0.09087744  0.39078842     0.14600
C3665       C  0.82050247  0.94857621  0.19256710    -0.05500
C3666       C  0.84225340  0.94087794  0.19222487    -0.05400
C3667       C  0.84965757  0.92682234  0.17563809    -0.23500
C3668       C  0.83556764  0.92009314  0.15879158     0.18700
C3669       C  0.81359215  0.92734275  0.15885926     0.15900
C3670       C  0.80608320  0.94146540  0.17585899    -0.18600
C3671       C  0.79972414  0.92054277  0.14172185    -0.20400
C3672       C  0.80755412  0.90678102  0.12484171    -0.13000
C3673       C  0.82943252  0.89932629  0.12473539     0.03700
C3674       C  0.84325810  0.90626650  0.14188164    -0.25100
H3675       H  0.85378219  0.94585169  0.20483582     0.08800
H3676       H  0.86654151  0.92137499  0.17589408     0.12400
H3677       H  0.78932888  0.94729833  0.17576392     0.12300
H3678       H  0.78285082  0.92598160  0.14126954     0.12100
H3679       H  0.79642964  0.90228179  0.11171774     0.12600
H3680       H  0.86004483  0.90077290  0.14241115     0.14600
C3681       C  0.85766002  0.96029710  0.30188776    -0.05500
C3682       C  0.87929385  0.95583876  0.29547876    -0.05400
C3683       C  0.89226170  0.94122487  0.30760412    -0.23500
C3684       C  0.88375861  0.93067921  0.32624884     0.18700
C3685       C  0.86239275  0.93576251  0.33345351     0.15900
C3686       C  0.84954197  0.95060183  0.32131266    -0.18600
C3687       C  0.85394130  0.92525785  0.35218812    -0.20400
C3688       C  0.86606053  0.90888670  0.36288049    -0.13000
C3689       C  0.88672540  0.90280645  0.35495101     0.03700
C3690       C  0.89585222  0.91436724  0.33716310    -0.25100
H3691       H  0.88607960  0.96329787  0.28080811     0.08800
H3692       H  0.90870527  0.93766751  0.30200883     0.12400
H3693       H  0.83297735  0.95402521  0.32663697     0.12300
H3694       H  0.83764946  0.92909736  0.35804254     0.12100
H3695       H  0.85880090  0.90015854  0.37656978     0.12600
H3696       H  0.91200432  0.90997999  0.33124185     0.14600
C3697       C  0.85731969  0.05633362  0.21001576    -0.05500
C3698       C  0.87939266  0.05952966  0.21524059    -0.05400
C3699       C  0.89180512  0.07460376  0.20329232    -0.23500
C3700       C  0.88239432  0.08632338  0.18568010     0.18700
C3701       C  0.86049093  0.08230394  0.17961061     0.15900
C3702       C  0.84804211  0.06754695  0.19199176    -0.18600
C3703       C  0.85125691  0.09350867  0.16159131    -0.20400
C3704       C  0.86332200  0.10924466  0.15022300    -0.13000
C3705       C  0.88462149  0.11423197  0.15693600     0.03700
C3706       C  0.89427054  0.10238720  0.17438986    -0.25100
H3707       H  0.88676358  0.05101790  0.22909897     0.08800
H3708       H  0.90862965  0.07736665  0.20805163     0.12400
H3709       H  0.83104200  0.06491538  0.18776834     0.12300
H3710       H  0.83455434  0.09044385  0.15660101     0.12100
H3711       H  0.85567799  0.11824189  0.13683171     0.12600
H3712       H  0.91087253  0.10598857  0.17940710     0.14600
C3713       C  0.06950240  0.34739258  0.16001589    -0.05500
C3714       C  0.06984949  0.32441067  0.15703938    -0.05400
C3715       C  0.06218473  0.31038256  0.17347209    -0.23500
C3716       C  0.05368417  0.31889749  0.19317349     0.18700
C3717       C  0.05190583  0.34185411  0.19587382     0.15900
C3718       C  0.05932255  0.35587803  0.17913444    -0.18600
C3719       C  0.04311740  0.35040914  0.21546907    -0.20400
C3720       C  0.03621268  0.33635258  0.23223970    -0.13000
C3721       C  0.03799727  0.31343937  0.22980724     0.03700
C3722       C  0.04681639  0.30483692  0.21014214    -0.25100
H3723       H  0.07586357  0.31691051  0.14207076     0.08800
H3724       H  0.06310614  0.29281364  0.17082611     0.12400
H3725       H  0.05801235  0.37348263  0.18140518     0.12300
H3726       H  0.04165487  0.36797787  0.21787341     0.12100
H3727       H  0.02948059  0.34346922  0.24718279     0.12600
H3728       H  0.04810117  0.28722647  0.20791299     0.14600
C3729       C  0.97319897  0.22319031  0.21935693    -0.05500
C3730       C  0.98780560  0.21386367  0.20398850    -0.05400
C3731       C  0.98005375  0.20232953  0.18562661    -0.23500
C3732       C  0.95754737  0.19984582  0.18229520     0.18700
C3733       C  0.94276217  0.20971811  0.19727494     0.15900
C3734       C  0.95063892  0.22131550  0.21562721    -0.18600
C3735       C  0.92030805  0.20734905  0.19400679    -0.20400
C3736       C  0.91255830  0.19443314  0.17671229    -0.13000
C3737       C  0.92701047  0.18350352  0.16222949     0.03700
C3738       C  0.94962639  0.18698777  0.16475501    -0.25100
H3739       H  0.00527944  0.21517619  0.20631737     0.08800
H3740       H  0.99167973  0.19498416  0.17427741     0.12400
H3741       H  0.93914941  0.22852413  0.22721407     0.12300
H3742       H  0.90871647  0.21492863  0.20523808     0.12100
H3743       H  0.89510017  0.19212874  0.17519069     0.12600
H3744       H  0.96131354  0.17908446  0.15399466     0.14600
C3745       C  0.06043422  0.20064746  0.29924595    -0.05500
C3746       C  0.07974301  0.19833155  0.28691834    -0.05400
C3747       C  0.09508337  0.18196586  0.29226935    -0.23500
C3748       C  0.09132015  0.16759277  0.30997551     0.18700
C3749       C  0.07156062  0.16935194  0.32189975     0.15900
C3750       C  0.05630217  0.18570506  0.31641325    -0.18600
C3751       C  0.06759450  0.15512966  0.33957079    -0.20400
C3752       C  0.08337459  0.13980195  0.34595630    -0.13000
C3753       C  0.10335728  0.13820500  0.33470425     0.03700
C3754       C  0.10708627  0.15186225  0.31635353    -0.25100
H3755       H  0.08330725  0.20961545  0.27363081     0.08800
H3756       H  0.11009070  0.18085423  0.28286226     0.12400
H3757       H  0.04134579  0.18709847  0.32590462     0.12300
H3758       H  0.05242538  0.15612314  0.34873326     0.12100
H3759       H  0.07991031  0.12911944  0.35977435     0.12600
H3760       H  0.12246386  0.15074654  0.30756698     0.14600
C3761       C  0.93898901  0.31798185  0.30279515    -0.05500
C3762       C  0.91759454  0.31555619  0.29477114    -0.05400
C3763       C  0.90098195  0.32994971  0.30153585    -0.23500
C3764       C  0.90541254  0.34677220  0.31674487     0.18700
C3765       C  0.92674527  0.34896963  0.32534499     0.15900
C3766       C  0.94339395  0.33474637  0.31815770    -0.18600
C3767       C  0.93112435  0.36544768  0.34091540    -0.20400
C3768       C  0.91467071  0.38004412  0.34746749    -0.13000
C3769       C  0.89361446  0.37853489  0.33845050     0.03700
C3770       C  0.88899648  0.36162135  0.32328748    -0.25100
H3771       H  0.91376699  0.30267239  0.28306666     0.08800
H3772       H  0.88469074  0.32793889  0.29486209     0.12400
H3773       H  0.95974044  0.33654257  0.32478718     0.12300
H3774       H  0.94737364  0.36728879  0.34774144     0.12100
H3775       H  0.91868935  0.39311240  0.35888988     0.12600
H3776       H  0.87272660  0.36023972  0.31636445     0.14600
C3777       C  0.95477824  0.21876579  0.34381170    -0.05500
C3778       C  0.95475745  0.22387829  0.36645712    -0.05400
C3779       C  0.94187301  0.21201383  0.38114416    -0.23500
C3780       C  0.92919423  0.19452300  0.37346488     0.18700
C3781       C  0.92961038  0.18882676  0.35080845     0.15900
C3782       C  0.94210153  0.20123564  0.33605220    -0.18600
C3783       C  0.91757030  0.17077637  0.34333740    -0.20400
C3784       C  0.90470676  0.15889248  0.35807200    -0.13000
C3785       C  0.90318306  0.16527489  0.38030180     0.03700
C3786       C  0.91587802  0.18282338  0.38801048    -0.25100
H3787       H  0.96444647  0.23732477  0.37274376     0.08800
H3788       H  0.94182857  0.21650615  0.39847944     0.12400
H3789       H  0.94229031  0.19702054  0.31863726     0.12300
H3790       H  0.91793928  0.16598571  0.32608939     0.12100
H3791       H  0.89532851  0.14524358  0.35187421     0.12600
H3792       H  0.91511826  0.18755898  0.40527611     0.14600
C3793       C  0.11045554  0.35551939  0.37359945    -0.05500
C3794       C  0.10177079  0.36546263  0.35458380    -0.05400
C3795       C  0.08461938  0.35567940  0.34302738    -0.23500
C3796       C  0.07592309  0.33572675  0.35025934     0.18700
C3797       C  0.08441588  0.32564442  0.36944848     0.15900
C3798       C  0.10149210  0.33564442  0.38104652    -0.18600
C3799       C  0.07582920  0.30561984  0.37661307    -0.20400
C3800       C  0.05934391  0.29536362  0.36451205    -0.13000
C3801       C  0.05100656  0.30507092  0.34517969     0.03700
C3802       C  0.05916586  0.32549704  0.33837691    -0.25100
H3803       H  0.10842265  0.38066452  0.34842087     0.08800
H3804       H  0.07831051  0.36360430  0.32831026     0.12400
H3805       H  0.10757175  0.32804028  0.39602783     0.12300
H3806       H  0.08212826  0.29770211  0.39134018     0.12100
H3807       H  0.05335153  0.27966264  0.37012794     0.12600
H3808       H  0.05296557  0.33316364  0.32346479     0.14600
C3809       C  0.76796302  0.54592316  0.21319751    -0.05500
C3810       C  0.77917667  0.56161141  0.22594932    -0.05400
C3811       C  0.79811885  0.57162111  0.21788549    -0.23500
C3812       C  0.80630280  0.56612558  0.19691311     0.18700
C3813       C  0.79519762  0.55026290  0.18412790     0.15900
C3814       C  0.77624560  0.54033930  0.19227598    -0.18600
C3815       C  0.80296059  0.54475758  0.16315503    -0.20400
C3816       C  0.82116462  0.55523217  0.15459459    -0.13000
C3817       C  0.83246128  0.57135234  0.16679000     0.03700
C3818       C  0.82498723  0.57653387  0.18825244    -0.25100
H3819       H  0.77329501  0.56619798  0.24219251     0.08800
H3820       H  0.80629250  0.58373482  0.22801727     0.12400
H3821       H  0.76793420  0.52823532  0.18222612     0.12300
H3822       H  0.79460454  0.53271842  0.15307313     0.12100
H3823       H  0.82601858  0.55126051  0.13784071     0.12600
H3824       H  0.83288007  0.58919520  0.19784536     0.14600
C3825       C  0.76909212  0.47539931  0.28855950    -0.05500
C3826       C  0.77845071  0.48901998  0.30476210    -0.05400
C3827       C  0.79776101  0.48283533  0.31541154    -0.23500
C3828       C  0.80807704  0.46296752  0.30997969     0.18700
C3829       C  0.79895474  0.44935376  0.29352247     0.15900
C3830       C  0.77953146  0.45559350  0.28297933    -0.18600
C3831       C  0.80903000  0.42937390  0.28831623    -0.20400
C3832       C  0.82739923  0.42238469  0.30002975    -0.13000
C3833       C  0.83650453  0.43549999  0.31688781     0.03700
C3834       C  0.82678448  0.45603510  0.32142654    -0.25100
H3835       H  0.77078730  0.50443903  0.30931330     0.08800
H3836       H  0.80449764  0.49347775  0.32802761     0.12400
H3837       H  0.77258515  0.44501697  0.27041450     0.12300
H3838       H  0.80211454  0.41865640  0.27586453     0.12100
H3839       H  0.83337589  0.40601919  0.29667712     0.12600
H3840       H  0.83284688  0.46594830  0.33496837     0.14600
C3841       C  0.66017260  0.40000380  0.12074661    -0.05500
C3842       C  0.65293194  0.42186616  0.11970479    -0.05400
C3843       C  0.66110339  0.43765288  0.13426677    -0.23500
C3844       C  0.67639868  0.43180597  0.15053663     0.18700
C3845       C  0.68361049  0.40977519  0.15206475     0.15900
C3846       C  0.67571868  0.39404007  0.13689127    -0.18600
C3847       C  0.69824797  0.40388889  0.16900306    -0.20400
C3848       C  0.70532036  0.41954774  0.18445270    -0.13000
C3849       C  0.69843873  0.44154583  0.18288608     0.03700
C3850       C  0.68417900  0.44755512  0.16560760    -0.25100
H3851       H  0.64119086  0.42684520  0.10727707     0.08800
H3852       H  0.65529660  0.45442945  0.13291794     0.12400
H3853       H  0.68122633  0.37713800  0.13793475     0.12300
H3854       H  0.70387345  0.38707582  0.17058598     0.12100
H3855       H  0.71612832  0.41445397  0.19769432     0.12600
H3856       H  0.67835363  0.46435305  0.16446801     0.14600
C3857       C  0.67372219  0.55340592  0.30703772    -0.05500
C3858       C  0.65256915  0.55053076  0.31568312    -0.05400
C3859       C  0.64527302  0.56295090  0.33385156    -0.23500
C3860       C  0.65885443  0.57875202  0.34358448     0.18700
C3861       C  0.67997405  0.58182464  0.33480080     0.15900
C3862       C  0.68731746  0.56909183  0.31688244    -0.18600
C3863       C  0.69342951  0.59788879  0.34378806    -0.20400
C3864       C  0.68613473  0.61099281  0.36116262    -0.13000
C3865       C  0.66536071  0.60799435  0.37085259     0.03700
C3866       C  0.65173872  0.59164890  0.36173803    -0.25100
H3867       H  0.64170831  0.53848497  0.30855114     0.08800
H3868       H  0.62897574  0.56027514  0.34019213     0.12400
H3869       H  0.70360966  0.57162117  0.31043516     0.12300
H3870       H  0.70954706  0.60070284  0.33703299     0.12100
H3871       H  0.69698935  0.62384700  0.36641043     0.12600
H3872       H  0.63570823  0.58885424  0.36861246     0.14600
C3873       C  0.65351275  0.54617985  0.19128546    -0.05500
C3874       C  0.66245034  0.55305941  0.17104195    -0.05400
C3875       C  0.65214013  0.56931166  0.15850808    -0.23500
C3876       C  0.63277506  0.57908094  0.16604959     0.18700
C3877       C  0.62330245  0.57177031  0.18599731     0.15900
C3878       C  0.63360281  0.55526419  0.19837337    -0.18600
C3879       C  0.60397741  0.58151547  0.19357704    -0.20400
C3880       C  0.59439951  0.59871614  0.18182291    -0.13000
C3881       C  0.60399197  0.60661016  0.16228284     0.03700
C3882       C  0.62302328  0.59639042  0.15428795    -0.25100
H3883       H  0.67772341  0.54623172  0.16509532     0.08800
H3884       H  0.65958404  0.57459198  0.14319347     0.12400
H3885       H  0.62654691  0.55015006  0.21394149     0.12300
H3886       H  0.59637725  0.57599432  0.20872273     0.12100
H3887       H  0.57934833  0.60574891  0.18805310     0.12600
H3888       H  0.63066787  0.60228716  0.13935768     0.14600
C3889       C  0.65142659  0.44844362  0.28483200    -0.05500
C3890       C  0.62907806  0.44605783  0.28034387    -0.05400
C3891       C  0.61641133  0.43180197  0.29292838    -0.23500
C3892       C  0.62584487  0.41997359  0.31040178     0.18700
C3893       C  0.64813930  0.42288963  0.31559777     0.15900
C3894       C  0.66081416  0.43696100  0.30267338    -0.18600
C3895       C  0.65741398  0.41147952  0.33346738    -0.20400
C3896       C  0.64483173  0.39682387  0.34569091    -0.13000
C3897       C  0.62295383  0.39318637  0.34000844     0.03700
C3898       C  0.61344163  0.40503836  0.32255699    -0.25100
H3899       H  0.62150208  0.45485418  0.26678367     0.08800
H3900       H  0.59929535  0.42987897  0.28887338     0.12400
H3901       H  0.67797356  0.43900935  0.30653357     0.12300
H3902       H  0.67443860  0.41365667  0.33777869     0.12100
H3903       H  0.65237638  0.38775999  0.35909859     0.12600
H3904       H  0.59642430  0.40249788  0.31838016     0.14600
C3905       C  0.32283571  0.34953496  0.57506566    -0.05500
C3906       C  0.30485372  0.34230107  0.58763549    -0.05400
C3907       C  0.29107250  0.32589470  0.57976897    -0.23500
C3908       C  0.29535235  0.31564083  0.55953173     0.18700
C3909       C  0.31368300  0.32213849  0.54704503     0.15900
C3910       C  0.32729881  0.33886768  0.55490086    -0.18600
C3911       C  0.31847279  0.31136329  0.52717143    -0.20400
C3912       C  0.30550072  0.29403736  0.51997104    -0.13000
C3913       C  0.28734168  0.28725625  0.53237046     0.03700
C3914       C  0.28212266  0.29842004  0.55200247    -0.25100
H3915       H  0.30166386  0.34867880  0.60399570     0.08800
H3916       H  0.27743205  0.32077150  0.58985994     0.12400
H3917       H  0.34176657  0.34306844  0.54560117     0.12300
H3918       H  0.33245249  0.31609406  0.51736505     0.12100
H3919       H  0.30980000  0.28581136  0.50468397     0.12600
H3920       H  0.26829010  0.29321723  0.56178943     0.14600
C3921       C  0.17333772  0.35360296  0.42599189    -0.05500
C3922       C  0.19286032  0.34650572  0.41579878    -0.05400
C3923       C  0.20505752  0.32905699  0.42436980    -0.23500
C3924       C  0.19779211  0.31777286  0.44303278     0.18700
C3925       C  0.17844611  0.32471917  0.45370920     0.15900
C3926       C  0.16628650  0.34237265  0.44505553    -0.18600
C3927       C  0.17116865  0.31336571  0.47241274    -0.20400
C3928       C  0.18281868  0.29517067  0.48026014    -0.13000
C3929       C  0.20173546  0.28775875  0.46934036     0.03700
C3930       C  0.20920317  0.29924395  0.45076610    -0.25100
H3931       H  0.19826304  0.35360698  0.40041098     0.08800
H3932       H  0.21975761  0.32384500  0.41585459     0.12400
H3933       H  0.15075176  0.34649274  0.45253765     0.12300
H3934       H  0.15639525  0.31844979  0.48087340     0.12100
H3935       H  0.17680324  0.28662595  0.49467743     0.12600
H3936       H  0.22393583  0.29382861  0.44241306     0.14600
C3937       C  0.36569150  0.16860390  0.39797652    -0.05500
C3938       C  0.36695520  0.16187680  0.42011569    -0.05400
C3939       C  0.35210788  0.17000828  0.43577066    -0.23500
C3940       C  0.33546698  0.18471955  0.42946831     0.18700
C3941       C  0.33365153  0.19107111  0.40709383     0.15900
C3942       C  0.34887900  0.18314787  0.39156066    -0.18600
C3943       C  0.31665224  0.20527079  0.40066269    -0.20400
C3944       C  0.30152537  0.21307955  0.41619901    -0.13000
C3945       C  0.30334746  0.20723423  0.43857424     0.03700
C3946       C  0.32052655  0.19307532  0.44508321    -0.25100
H3947       H  0.37989533  0.15089295  0.42544575     0.08800
H3948       H  0.35371075  0.16487106  0.45284312     0.12400
H3949       H  0.34768244  0.18829579  0.37444966     0.12300
H3950       H  0.31495769  0.21023371  0.38354884     0.12100
H3951       H  0.28846823  0.22384448  0.41073825     0.12600
H3952       H  0.32198518  0.18813972  0.46224076     0.14600
C3953       C  0.13481810  0.16561335  0.61447525    -0.05500
C3954       C  0.15073034  0.15017478  0.60789466    -0.05400
C3955       C  0.16755912  0.15591517  0.59346700    -0.23500
C3956       C  0.16917726  0.17736470  0.58539048     0.18700
C3957       C  0.15372699  0.19330686  0.59210010     0.15900
C3958       C  0.13656907  0.18733565  0.60643088    -0.18600
C3959       C  0.15569742  0.21489196  0.58422530    -0.20400
C3960       C  0.17263469  0.22050410  0.56970226    -0.13000
C3961       C  0.18780641  0.20460278  0.56248124     0.03700
C3962       C  0.18595138  0.18303714  0.57061270    -0.25100
H3963       H  0.15049189  0.13356001  0.61404222     0.08800
H3964       H  0.17940198  0.14351532  0.58867352     0.12400
H3965       H  0.12447178  0.19956765  0.61092505     0.12300
H3966       H  0.14406746  0.22742288  0.58919967     0.12100
H3967       H  0.17353862  0.23719316  0.56369479     0.12600
H3968       H  0.19755154  0.17057344  0.56537673     0.14600
C3969       C  0.29749390  0.17213500  0.54525123    -0.05500
C3970       C  0.31608245  0.18281195  0.55364587    -0.05400
C3971       C  0.33030146  0.17210528  0.56802811    -0.23500
C3972       C  0.32619494  0.15052180  0.57439546     0.18700
C3973       C  0.30803475  0.13929824  0.56551271     0.15900
C3974       C  0.29381345  0.15014262  0.55088546    -0.18600
C3975       C  0.30404837  0.11766855  0.57201191    -0.20400
C3976       C  0.31715391  0.10778782  0.58812418    -0.13000
C3977       C  0.33453332  0.11932590  0.59787769     0.03700
C3978       C  0.33946411  0.14036769  0.59024586    -0.25100
H3979       H  0.31949812  0.19970515  0.54945720     0.08800
H3980       H  0.34419690  0.18089956  0.57459690     0.12400
H3981       H  0.27969662  0.14167106  0.54435845     0.12300
H3982       H  0.29043073  0.10865400  0.56516644     0.12100
H3983       H  0.31340846  0.09123854  0.59325921     0.12600
H3984       H  0.35281775  0.14938396  0.59747861     0.14600
C3985       C  0.20320767  0.16707527  0.45050602    -0.05500
C3986       C  0.20667495  0.14429357  0.45130663    -0.05400
C3987       C  0.19660514  0.13047929  0.43593060    -0.23500
C3988       C  0.18264031  0.13919890  0.41971814     0.18700
C3989       C  0.17830192  0.16199840  0.41938197     0.15900
C3990       C  0.18872666  0.17577474  0.43464153    -0.18600
C3991       C  0.16380370  0.17066216  0.40361137    -0.20400
C3992       C  0.15390458  0.15688128  0.38811728    -0.13000
C3993       C  0.15874547  0.13438269  0.38785854     0.03700
C3994       C  0.17304932  0.12556687  0.40374294    -0.25100
H3995       H  0.21776640  0.13722882  0.46334742     0.08800
H3996       H  0.19994849  0.11301872  0.43654734     0.12400
H3997       H  0.18572006  0.19331014  0.43403178     0.12300
H3998       H  0.16018521  0.18807872  0.40321864     0.12100
H3999       H  0.14282155  0.16383560  0.37599490     0.12600
H4000       H  0.17651572  0.10810295  0.40373710     0.14600
C4001       C  0.42338544  0.18168269  0.33824097    -0.05500
C4002       C  0.41797469  0.20400405  0.33525016    -0.05400
C4003       C  0.42847975  0.21649253  0.31917792    -0.23500
C4004       C  0.44445977  0.20697949  0.30562808     0.18700
C4005       C  0.45049536  0.18482316  0.30880641     0.15900
C4006       C  0.44013918  0.17247486  0.32515900    -0.18600
C4007       C  0.46629486  0.17517080  0.29510436    -0.20400
C4008       C  0.47545034  0.18716522  0.27786393    -0.13000
C4009       C  0.46919896  0.20910996  0.27423016     0.03700
C4010       C  0.45402664  0.21906926  0.28853850    -0.25100
H4011       H  0.40543330  0.21206673  0.34476416     0.08800
H4012       H  0.42371064  0.23350450  0.31699949     0.12400
H4013       H  0.44457049  0.15534585  0.32725671     0.12300
H4014       H  0.47120438  0.15821216  0.29739769     0.12100
H4015       H  0.48733001  0.17919422  0.26725181     0.12600
H4016       H  0.44908976  0.23597771  0.28591923     0.14600
C4017       C  0.57339748  0.32816718  0.34170630    -0.05500
C4018       C  0.55064195  0.32523342  0.34361838    -0.05400
C4019       C  0.53912174  0.31306232  0.32791061    -0.23500
C4020       C  0.55000519  0.30344409  0.30997947     0.18700
C4021       C  0.57297355  0.30466928  0.30878524     0.15900
C4022       C  0.58451645  0.31658807  0.32485915    -0.18600
C4023       C  0.58390577  0.29484160  0.29094690    -0.20400
C4024       C  0.57210477  0.28477625  0.27395351    -0.13000
C4025       C  0.54913569  0.28431756  0.27445518     0.03700
C4026       C  0.53823635  0.29324115  0.29289719    -0.25100
H4027       H  0.54128840  0.33259600  0.35676828     0.08800
H4028       H  0.52154841  0.31180661  0.32940461     0.12400
H4029       H  0.60208102  0.31813820  0.32341320     0.12300
H4030       H  0.60154153  0.29547959  0.28981059     0.12100
H4031       H  0.58098563  0.27786002  0.26010116     0.12600
H4032       H  0.52057172  0.29273249  0.29373265     0.14600
C4033       C  0.55703028  0.18542442  0.19040612    -0.05500
C4034       C  0.54749732  0.16939399  0.17678666    -0.05400
C4035       C  0.56008398  0.15246026  0.16781537    -0.23500
C4036       C  0.58240435  0.15099195  0.17258983     0.18700
C4037       C  0.59215040  0.16666086  0.18671562     0.15900
C4038       C  0.57944302  0.18398262  0.19532538    -0.18600
C4039       C  0.61440878  0.16464771  0.19195729    -0.20400
C4040       C  0.62685357  0.14737425  0.18317234    -0.13000
C4041       C  0.61731657  0.13213214  0.16871833     0.03700
C4042       C  0.59509487  0.13402719  0.16352320    -0.25100
H4043       H  0.53030462  0.17023484  0.17262423     0.08800
H4044       H  0.55235580  0.14053023  0.15710220     0.12400
H4045       H  0.58690151  0.19618090  0.20593135     0.12300
H4046       H  0.62216302  0.17638003  0.20286055     0.12100
H4047       H  0.64400951  0.14608538  0.18737286     0.12600
H4048       H  0.58757191  0.12197935  0.15282777     0.14600
C4049       C  0.44621764  0.31183744  0.20015938    -0.05500
C4050       C  0.43975880  0.32673052  0.21671250    -0.05400
C4051       C  0.42533724  0.34406844  0.21175269    -0.23500
C4052       C  0.41710606  0.34674909  0.19017924     0.18700
C4053       C  0.42290449  0.33136010  0.17374065     0.15900
C4054       C  0.43721615  0.31407346  0.17882804    -0.18600
C4055       C  0.41472005  0.33371916  0.15225279    -0.20400
C4056       C  0.40123715  0.35144750  0.14685195    -0.13000
C4057       C  0.39556685  0.36731960  0.16277298     0.03700
C4058       C  0.40352464  0.36467662  0.18460551    -0.25100
H4059       H  0.44631034  0.32534667  0.23329157     0.08800
H4060       H  0.42094547  0.35560015  0.22467695     0.12400
H4061       H  0.44169937  0.30256182  0.16589881     0.12300
H4062       H  0.41889593  0.32190469  0.13950686     0.12100
H4063       H  0.39517256  0.35244927  0.13011642     0.12600
H4064       H  0.39967832  0.37674581  0.19717827     0.14600
C4065       C  0.60653601  0.34614771  0.11751925    -0.05500
C4066       C  0.60832287  0.34954090  0.14037593    -0.05400
C4067       C  0.59523773  0.33772119  0.15503606    -0.23500
C4068       C  0.57990386  0.32264654  0.14696216     0.18700
C4069       C  0.57730239  0.32001367  0.12387909     0.15900
C4070       C  0.59080354  0.33158322  0.10933250    -0.18600
C4071       C  0.56149801  0.30556445  0.11572443    -0.20400
C4072       C  0.54866754  0.29345535  0.13028012    -0.13000
C4073       C  0.55173031  0.29519356  0.15322294     0.03700
C4074       C  0.56731503  0.30996968  0.16150296    -0.25100
H4075       H  0.62046828  0.36066718  0.14689195     0.08800
H4076       H  0.59733303  0.34011804  0.17265666     0.12400
H4077       H  0.58932036  0.32908123  0.09164547     0.12300
H4078       H  0.55916966  0.30350408  0.09808949     0.12100
H4079       H  0.53671304  0.28223977  0.12356733     0.12600
H4080       H  0.56953996  0.31166286  0.17920310     0.14600
C4081       C  0.45323000  0.20931189  0.15349621    -0.05500
C4082       C  0.45161599  0.21532457  0.13112935    -0.05400
C4083       C  0.43628270  0.20546949  0.11726204    -0.23500
C4084       C  0.42211015  0.18952416  0.12551777     0.18700
C4085       C  0.42371148  0.18304360  0.14787818     0.15900
C4086       C  0.43931835  0.19291302  0.16170803    -0.18600
C4087       C  0.40948197  0.16700470  0.15602648    -0.20400
C4088       C  0.39363580  0.15772434  0.14221694    -0.13000
C4089       C  0.39164574  0.16449111  0.12014377     0.03700
C4090       C  0.40613554  0.18022226  0.11184186    -0.25100
H4091       H  0.46219900  0.22774979  0.12432187     0.08800
H4092       H  0.43533337  0.21052450  0.10012212     0.12400
H4093       H  0.44032946  0.18812600  0.17893033     0.12300
H4094       H  0.41044842  0.16182144  0.17312639     0.12100
H4095       H  0.38253474  0.14571268  0.14893441     0.12600
H4096       H  0.40489061  0.18529925  0.09471500     0.14600
C4097       C  0.27954782  0.55280901  0.27924788    -0.05500
C4098       C  0.28234172  0.57535984  0.27521400    -0.05400
C4099       C  0.29958805  0.58679030  0.28476248    -0.23500
C4100       C  0.31444275  0.57595368  0.29859030     0.18700
C4101       C  0.31241975  0.55316902  0.30212753     0.15900
C4102       C  0.29504352  0.54166877  0.29234823    -0.18600
C4103       C  0.32732624  0.54248578  0.31606820    -0.20400
C4104       C  0.34349902  0.55436695  0.32709878    -0.13000
C4105       C  0.34531276  0.57727227  0.32424400     0.03700
C4106       C  0.33074665  0.58775495  0.30958690    -0.25100
H4107       H  0.27090646  0.58438187  0.26496072     0.08800
H4108       H  0.30099856  0.60423777  0.28172729     0.12400
H4109       H  0.29323072  0.52427907  0.29549554     0.12300
H4110       H  0.32601930  0.52502374  0.31905949     0.12100
H4111       H  0.35366005  0.54544531  0.33857353     0.12600
H4112       H  0.33151821  0.60539405  0.30748949     0.14600
C4113       C  0.27263077  0.47331017  0.20221852    -0.05500
C4114       C  0.27536759  0.47782120  0.17959138    -0.05400
C4115       C  0.29242766  0.46821745  0.16766372    -0.23500
C4116       C  0.30702965  0.45376478  0.17806023     0.18700
C4117       C  0.30460390  0.44914497  0.20076592     0.15900
C4118       C  0.28750848  0.45902657  0.21275444    -0.18600
C4119       C  0.31918246  0.43452685  0.21100462    -0.20400
C4120       C  0.33555907  0.42401058  0.19873783    -0.13000
C4121       C  0.33778075  0.42797473  0.17588496     0.03700
C4122       C  0.32370437  0.44349286  0.16595799    -0.25100
H4123       H  0.26431721  0.48885981  0.17103828     0.08800
H4124       H  0.29406592  0.47193894  0.15023632     0.12400
H4125       H  0.28567704  0.45540271  0.23018537     0.12300
H4126       H  0.31769262  0.43092076  0.22846879     0.12100
H4127       H  0.34607830  0.41271047  0.20742731     0.12600
H4128       H  0.32526172  0.44692603  0.14844538     0.14600
C4129       C  0.15606224  0.61710924  0.12570579    -0.05500
C4130       C  0.14735792  0.59585374  0.12572038    -0.05400
C4131       C  0.15589100  0.57970108  0.13969787    -0.23500
C4132       C  0.17315841  0.58457667  0.15409283     0.18700
C4133       C  0.18168162  0.60606578  0.15463980     0.15900
C4134       C  0.17319076  0.62214537  0.14033811    -0.18600
C4135       C  0.19849622  0.61110084  0.16954296    -0.20400
C4136       C  0.20659991  0.59507663  0.18395308    -0.13000
C4137       C  0.19841558  0.57361725  0.18334153     0.03700
C4138       C  0.18183438  0.56841142  0.16816109    -0.25100
H4139       H  0.13438394  0.59148387  0.11439238     0.08800
H4140       H  0.14906776  0.56335859  0.13914930     0.12400
H4141       H  0.17984383  0.63857270  0.14062443     0.12300
H4142       H  0.20515118  0.62750578  0.17028447     0.12100
H4143       H  0.21922376  0.59946897  0.19568169     0.12600
H4144       H  0.17508429  0.55201638  0.16792534     0.14600
C4145       C  0.19787505  0.46034603  0.30963674    -0.05500
C4146       C  0.21308975  0.44430666  0.31635841    -0.05400
C4147       C  0.20773876  0.42902772  0.33277817    -0.23500
C4148       C  0.18713504  0.42960841  0.34298371     0.18700
C4149       C  0.17202608  0.44610908  0.33690961     0.15900
C4150       C  0.17742302  0.46124848  0.32031567    -0.18600
C4151       C  0.15163050  0.44707320  0.34735130    -0.20400
C4152       C  0.14601850  0.43159652  0.36335079    -0.13000
C4153       C  0.16050302  0.41451580  0.36912296     0.03700
C4154       C  0.18125904  0.41384465  0.35890427    -0.25100
H4155       H  0.22894197  0.44320886  0.30852393     0.08800
H4156       H  0.21964167  0.41659528  0.33731501     0.12400
H4157       H  0.16553909  0.47363928  0.31557384     0.12300
H4158       H  0.13994687  0.45982299  0.34311770     0.12100
H4159       H  0.13029527  0.43327179  0.37128658     0.12600
H4160       H  0.19270882  0.40081997  0.36285635     0.14600
C4161       C  0.15741025  0.56707855  0.28545821    -0.05500
C4162       C  0.13542215  0.56826725  0.27898235    -0.05400
C4163       C  0.12074246  0.58170606  0.29040838    -0.23500
C4164       C  0.12774331  0.59376320  0.30880892     0.18700
C4165       C  0.14982573  0.59244117  0.31562392     0.15900
C4166       C  0.16461792  0.57939323  0.30365260    -0.18600
C4167       C  0.15668710  0.60418047  0.33429761    -0.20400
C4168       C  0.14190673  0.61741475  0.34587118    -0.13000
C4169       C  0.12012643  0.61923822  0.33888268     0.03700
C4170       C  0.11308595  0.60725552  0.32040246    -0.25100
H4171       H  0.12966053  0.55894122  0.26490149     0.08800
H4172       H  0.10389396  0.58254800  0.28495226     0.12400
H4173       H  0.18157208  0.57837190  0.30878850     0.12300
H4174       H  0.17353732  0.60338099  0.33975810     0.12100
H4175       H  0.14777025  0.62702672  0.35963516     0.12600
H4176       H  0.09626650  0.60869533  0.31491948     0.14600
C4177       C  0.15361809  0.46941539  0.20059188    -0.05500
C4178       C  0.13293732  0.46520044  0.20962600    -0.05400
C4179       C  0.11856477  0.45090498  0.19911698    -0.23500
C4180       C  0.12462714  0.44043330  0.17941655     0.18700
C4181       C  0.14504165  0.44503625  0.16969865     0.15900
C4182       C  0.15938266  0.45958905  0.18029087    -0.18600
C4183       C  0.15094806  0.43452619  0.14988260    -0.20400
C4184       C  0.13710384  0.41897873  0.14028871    -0.13000
C4185       C  0.11722701  0.41369412  0.15040633     0.03700
C4186       C  0.11085380  0.42492055  0.16967032    -0.25100
H4187       H  0.12793849  0.47270802  0.22506653     0.08800
H4188       H  0.10289002  0.44766905  0.20666635     0.12400
H4189       H  0.17520708  0.46277467  0.17302869     0.12300
H4190       H  0.16648827  0.43791187  0.14212389     0.12100
H4191       H  0.14232888  0.41045864  0.12546651     0.12600
H4192       H  0.09533390  0.42121358  0.17734874     0.14600
C4193       C  0.77534780  0.77447776  0.04411428    -0.05500
C4194       C  0.76374703  0.78653327  0.06013021    -0.05400
C4195       C  0.77265523  0.80554895  0.06931764    -0.23500
C4196       C  0.79319946  0.81294353  0.06245510     0.18700
C4197       C  0.80478050  0.80104993  0.04614708     0.15900
C4198       C  0.79588910  0.78189103  0.03722583    -0.18600
C4199       C  0.82522870  0.80831383  0.03919492    -0.20400
C4200       C  0.83453211  0.82675379  0.04888582    -0.13000
C4201       C  0.82359402  0.83855518  0.06565642     0.03700
C4202       C  0.80258881  0.83164901  0.07204568    -0.25100
H4203       H  0.74783040  0.78120207  0.06562879     0.08800
H4204       H  0.76350283  0.81443426  0.08181052     0.12400
H4205       H  0.80489206  0.77290096  0.02467754     0.12300
H4206       H  0.83431817  0.79938552  0.02667880     0.12100
H4207       H  0.85085817  0.83131288  0.04391093     0.12600
H4208       H  0.79380204  0.83983149  0.08515047     0.14600
C4209       C  0.70656488  0.77296183  0.95967403    -0.05500
C4210       C  0.70841867  0.77406209  0.93652363    -0.05400
C4211       C  0.70016888  0.79204603  0.92490100    -0.23500
C4212       C  0.68983493  0.80928367  0.93617347     0.18700
C4213       C  0.68804952  0.80852793  0.95941964     0.15900
C4214       C  0.69644420  0.79041797  0.97105344    -0.18600
C4215       C  0.67750642  0.82570107  0.97058036    -0.20400
C4216       C  0.66774614  0.84284119  0.95877516    -0.13000
C4217       C  0.66844310  0.84328386  0.93543120     0.03700
C4218       C  0.68050378  0.82680826  0.92445750    -0.25100
H4219       H  0.71616613  0.76091986  0.92729641     0.08800
H4220       H  0.70161714  0.79232271  0.90705447     0.12400
H4221       H  0.69497670  0.78988626  0.98890055     0.12300
H4222       H  0.67615020  0.82550582  0.98843870     0.12100
H4223       H  0.65904716  0.85499050  0.96832347     0.12600
H4224       H  0.68128306  0.82686266  0.90654665     0.14600
C4225       C  0.67868910  0.69314914  0.05723296    -0.05500
C4226       C  0.66311057  0.70941974  0.06240592    -0.05400
C4227       C  0.64497773  0.70453652  0.07555302    -0.23500
C4228       C  0.64210677  0.68330968  0.08398756     0.18700
C4229       C  0.65781794  0.66693893  0.07928181     0.15900
C4230       C  0.67591409  0.67189721  0.06592807    -0.18600
C4231       C  0.65511808  0.64582910  0.08793047    -0.20400
C4232       C  0.63707081  0.64095026  0.10114466    -0.13000
C4233       C  0.62105070  0.65695592  0.10590905     0.03700
C4234       C  0.62378304  0.67820109  0.09699696    -0.25100
H4235       H  0.66472911  0.72589031  0.05597714     0.08800
H4236       H  0.63314661  0.71736640  0.07905200     0.12400
H4237       H  0.68777134  0.65913524  0.06223460     0.12300
H4238       H  0.66707491  0.63306789  0.08460181     0.12100
H4239       H  0.63605533  0.62460315  0.10781168     0.12600
H4240       H  0.61164144  0.69084414  0.09985883     0.14600
C4241       C  0.80689639  0.70312702  0.94405959    -0.05500
C4242       C  0.82629301  0.71518360  0.94588720    -0.05400
C4243       C  0.84383919  0.71108100  0.93158318    -0.23500
C4244       C  0.84254240  0.69438160  0.91561639     0.18700
C4245       C  0.82317288  0.68201831  0.91382140     0.15900
C4246       C  0.80535837  0.68676695  0.92771599    -0.18600
C4247       C  0.82209785  0.66479260  0.89846411    -0.20400
C4248       C  0.84004884  0.65974441  0.88509624    -0.13000
C4249       C  0.85925499  0.67207310  0.88644820     0.03700
C4250       C  0.86035251  0.68955178  0.90167604    -0.25100
H4251       H  0.82783346  0.72785483  0.95835775     0.08800
H4252       H  0.85855992  0.72069622  0.93327895     0.12400
H4253       H  0.79057840  0.67716893  0.92638123     0.12300
H4254       H  0.80742112  0.65508971  0.89691119     0.12100
H4255       H  0.83874651  0.64643810  0.87334189     0.12600
H4256       H  0.87520329  0.69903806  0.90298713     0.14600
C4257       C  0.69973782  0.65238028  0.95450753    -0.05500
C4258       C  0.70404908  0.62976900  0.95393309    -0.05400
C4259       C  0.69216304  0.61612962  0.93985233    -0.23500
C4260       C  0.67556896  0.62489185  0.92644205     0.18700
C4261       C  0.67029511  0.64745341  0.92780534     0.15900
C4262       C  0.68255632  0.66109479  0.94171772    -0.18600
C4263       C  0.65337169  0.65605995  0.91464471    -0.20400
C4264       C  0.64266629  0.64266942  0.89930343    -0.13000
C4265       C  0.64888107  0.62062766  0.89689919     0.03700
C4266       C  0.66481026  0.61165518  0.91101763    -0.25100
H4267       H  0.71717313  0.62279866  0.96373937     0.08800
H4268       H  0.69627618  0.59883066  0.93907468     0.12400
H4269       H  0.67896703  0.67852691  0.94237803     0.12300
H4270       H  0.64897943  0.67327872  0.91564844     0.12100
H4271       H  0.63048028  0.64980720  0.88843356     0.12600
H4272       H  0.66948776  0.59455067  0.90926064     0.14600
C4273       C  0.79224553  0.65499916  0.04751587    -0.05500
C4274       C  0.78505320  0.63356518  0.05168709    -0.05400
C4275       C  0.79657506  0.61983913  0.06592840    -0.23500
C4276       C  0.81543796  0.62730729  0.07648027     0.18700
C4277       C  0.82332738  0.64858088  0.07213151     0.15900
C4278       C  0.81174239  0.66230316  0.05748456    -0.18600
C4279       C  0.84223496  0.65585649  0.08306915    -0.20400
C4280       C  0.85249990  0.64252968  0.09891922    -0.13000
C4281       C  0.84400184  0.62179873  0.10390313     0.03700
C4282       C  0.82599123  0.61402392  0.09197627    -0.25100
H4283       H  0.77024055  0.62742234  0.04417586     0.08800
H4284       H  0.79040233  0.60353590  0.06911679     0.12400
H4285       H  0.81750088  0.67878837  0.05442714     0.12300
H4286       H  0.84863551  0.67206796  0.07990238     0.12100
H4287       H  0.86642208  0.64878977  0.10794608     0.12600
H4288       H  0.81968040  0.59779665  0.09533677     0.14600
C4289       C  0.28577657  0.78332671  0.45432281    -0.05500
C4290       C  0.27470539  0.79419850  0.43711716    -0.05400
C4291       C  0.28385111  0.81263172  0.42700768    -0.23500
C4292       C  0.30406163  0.82074391  0.43420220     0.18700
C4293       C  0.31495624  0.81019617  0.45188777     0.15900
C4294       C  0.30589598  0.79151243  0.46165188    -0.18600
C4295       C  0.33498294  0.81821448  0.45930743    -0.20400
C4296       C  0.34464084  0.83592021  0.44873359    -0.13000
C4297       C  0.33452495  0.84629589  0.43054363     0.03700
C4298       C  0.31385176  0.83875891  0.42363462    -0.25100
H4299       H  0.25913219  0.78820993  0.43123395     0.08800
H4300       H  0.27518143  0.82045178  0.41350205     0.12400
H4301       H  0.31443894  0.78342865  0.47510486     0.12300
H4302       H  0.34353373  0.81037101  0.47288221     0.12100
H4303       H  0.36070826  0.84092654  0.45418761     0.12600
H4304       H  0.30576980  0.84589048  0.40947541     0.14600
C4305       C  0.17739092  0.84676338  0.57064715    -0.05500
C4306       C  0.17870476  0.84848464  0.54742423    -0.05400
C4307       C  0.18947168  0.83245255  0.53495109    -0.23500
C4308       C  0.19927832  0.81441071  0.54532174     0.18700
C4309       C  0.19919880  0.81305475  0.56861175     0.15900
C4310       C  0.18863351  0.82936889  0.58107205    -0.18600
C4311       C  0.20913957  0.79506438  0.57903025    -0.20400
C4312       C  0.21879677  0.77840924  0.56644067    -0.13000
C4313       C  0.21860751  0.77938947  0.54320488     0.03700
C4314       C  0.20891990  0.79758683  0.53276056    -0.25100
H4315       H  0.17128507  0.86182118  0.53845167     0.08800
H4316       H  0.18973251  0.83395535  0.51710870     0.12400
H4317       H  0.18814953  0.82795978  0.59893058     0.12300
H4318       H  0.20921392  0.79373587  0.59688793     0.12100
H4319       H  0.22612746  0.76456402  0.57492267     0.12600
H4320       H  0.20881408  0.79864319  0.51487659     0.14600
C4321       C  0.13080640  0.66804053  0.39363144    -0.05500
C4322       C  0.14469292  0.65124413  0.40154368    -0.05400
C4323       C  0.16220193  0.65588588  0.41552748    -0.23500
C4324       C  0.16641267  0.67746008  0.42204597     0.18700
C4325       C  0.15279066  0.69460068  0.41445576     0.15900
C4326       C  0.13503555  0.68981172  0.40049224    -0.18600
C4327       C  0.15716094  0.71624741  0.42102641    -0.20400
C4328       C  0.17476574  0.72078835  0.43509965    -0.13000
C4329       C  0.18828681  0.70376100  0.44293478     0.03700
C4330       C  0.18397969  0.68209595  0.43615575    -0.25100
H4331       H  0.14251335  0.63433473  0.39693808     0.08800
H4332       H  0.17252688  0.64251928  0.42120258     0.12400
H4333       H  0.12453002  0.70316792  0.39533861     0.12300
H4334       H  0.14693493  0.72966678  0.41532908     0.12100
H4335       H  0.17767689  0.73761260  0.43998480     0.12600
H4336       H  0.19424550  0.66871787  0.44192026     0.14600
C4337       C  0.37109507  0.66628653  0.60308042    -0.05500
C4338       C  0.34963708  0.66094107  0.60872708    -0.05400
C4339       C  0.33215436  0.66912081  0.59636580    -0.23500
C4340       C  0.33596272  0.68252494  0.57798031     0.18700
C4341       C  0.35761421  0.68752996  0.57180370     0.15900
C4342       C  0.37510673  0.67956711  0.58460990    -0.18600
C4343       C  0.36130112  0.70037507  0.55295526    -0.20400
C4344       C  0.34368617  0.70815374  0.54034163    -0.13000
C4345       C  0.32211900  0.70363717  0.54667653     0.03700
C4346       C  0.31843587  0.69085951  0.56560890    -0.25100
H4347       H  0.34640065  0.65094786  0.62311146     0.08800
H4348       H  0.31566105  0.66505324  0.60123967     0.12400
H4349       H  0.39176756  0.68362082  0.58028239     0.12300
H4350       H  0.37778337  0.70423557  0.54786932     0.12100
H4351       H  0.34690681  0.71777750  0.52569391     0.12600
H4352       H  0.30188498  0.68686403  0.57039755     0.14600
C4353       C  0.21452692  0.66345117  0.55125185    -0.05500
C4354       C  0.22361320  0.66141109  0.57246620    -0.05400
C4355       C  0.21182133  0.65207415  0.58961408    -0.23500
C4356       C  0.19055672  0.64466434  0.58596503     0.18700
C4357       C  0.18113882  0.64616326  0.56468746     0.15900
C4358       C  0.19329791  0.65550507  0.54725857    -0.18600
C4359       C  0.15968996  0.63857474  0.56151081    -0.20400
C4360       C  0.14811987  0.62895692  0.57905248    -0.13000
C4361       C  0.15773803  0.62695882  0.60006891     0.03700
C4362       C  0.17871726  0.63564714  0.60341015    -0.25100
H4363       H  0.23983870  0.66754435  0.57590195     0.08800
H4364       H  0.21926456  0.65090387  0.60583507     0.12400
H4365       H  0.18602459  0.65740849  0.53103127     0.12300
H4366       H  0.15203568  0.63969451  0.54540043     0.12100
H4367       H  0.13201290  0.62245082  0.57596355     0.12600
H4368       H  0.18613352  0.63512229  0.61967274     0.14600
C4369       C  0.29582071  0.66319646  0.44432780    -0.05500
C4370       C  0.28827768  0.64208363  0.43914137    -0.05400
C4371       C  0.29925291  0.62902419  0.42365975    -0.23500
C4372       C  0.31798024  0.63681799  0.41300617     0.18700
C4373       C  0.32578163  0.65798026  0.41800634     0.15900
C4374       C  0.31468514  0.67101725  0.43361703    -0.18600
C4375       C  0.34451048  0.66572916  0.40724657    -0.20400
C4376       C  0.35530371  0.65268379  0.39154254    -0.13000
C4377       C  0.34755298  0.63168481  0.38628702     0.03700
C4378       C  0.32894662  0.62381290  0.39734790    -0.25100
H4379       H  0.27381783  0.63564210  0.44701112     0.08800
H4380       H  0.29303104  0.61283041  0.41995632     0.12400
H4381       H  0.32073243  0.68728226  0.43733282     0.12300
H4382       H  0.35070505  0.68195841  0.41083481     0.12100
H4383       H  0.36939499  0.65925759  0.38313161     0.12600
H4384       H  0.32297642  0.60747918  0.39386132     0.14600
loop_ 
_geom_bond_atom_site_label_1 
_geom_bond_atom_site_label_2 
_geom_bond_distance 
_geom_bond_site_symmetry_2 
_ccdc_geom_bond_type 
O1           C17   1.277       .  A
O1           Zn7   2.027       .  S
C2           O18   1.275       .  A
C2           O15   1.273       .  A
C2         C4345   1.480       .  S
O3           C16   1.282       .  A
O3          Cd10   2.095       .  S
O4           C22   1.272       .  A
O4          Cd13   2.041       .  S
O5           C19   1.279       .  A
O5           Cd9   2.085       .  S
O6           C17   1.276       .  A
O6           Cd9   2.080       .  S
Zn7          O18   2.034       .  S
Zn7          O20   2.009       .  S
Zn7          O12   1.933       .  S
O8           C19   1.275       .  A
O8          Cd13   2.056       .  S
Cd9          O11   2.095       .  S
Cd9          O12   1.998       .  S
Cd10         O14   2.058       .  S
Cd10         O23   2.114       .  S
Cd10         O12   1.998       .  S
O11          C21   1.279       .  A
O12         Cd13   1.974       .  S
Cd13         O15   2.058       .  S
O14          C21   1.274       .  A
C16          O20   1.276       .  A
C16        C4369   1.487       .  S
C17        C4289   1.480       .  S
C19        C4313   1.480       .  S
C21        C4329   1.487       .  S
C22          O23   1.279       .  A
C22        C4353   1.478       .  S
O24          C40   1.276       .  A
O24         Zn30   2.042   1_556  S
C25          O41   1.276       .  A
C25          O38   1.276       .  A
C25        C4193   1.477       .  S
O26          C39   1.277       .  A
O26         Cd33   2.063       .  S
O27          C45   1.279       .  A
O27         Cd36   2.097       .  S
O28          C42   1.275       .  A
O28         Cd32   2.057       .  S
O29          C40   1.276       .  A
O29         Cd32   2.080       .  S
Zn30         O41   2.011       .  S
Zn30         O43   2.026       .  S
Zn30         O35   1.937       .  S
O31          C42   1.278       .  A
O31         Cd36   2.081   1_556  S
Cd32         O34   2.056       .  S
Cd32         O35   1.977   1_556  S
Cd33         O37   2.081   1_554  S
Cd33         O46   2.076       .  S
Cd33         O35   1.985       .  S
O34          C44   1.273       .  A
O35         Cd36   1.999       .  S
Cd36         O38   2.070       .  S
O37          C44   1.277       .  A
C39          O43   1.276       .  A
C39        C4273   1.481       .  S
C40        C4241   1.483       .  S
C42        C4209   1.482       .  S
C44        C4257   1.472       .  S
C45          O46   1.276       .  A
C45        C4225   1.491       .  S
O47          C63   1.275       .  A
O47         Zn53   2.030       .  S
C48          O64   1.278       .  A
C48          O61   1.280       .  A
C48        C4113   1.484       .  S
O49          C62   1.275       .  A
O49         Cd56   2.069       .  S
O50          C68   1.283       .  A
O50         Cd59   2.117       .  S
O51          C65   1.274       .  A
O51         Cd55   2.047       .  S
O52          C63   1.273       .  A
O52         Cd55   2.063       .  S
Zn53         O64   2.016       .  S
Zn53         O66   2.017       .  S
Zn53         O58   1.929       .  S
O54          C65   1.280       .  A
O54         Cd59   2.100       .  S
Cd55         O57   2.067       .  S
Cd55         O58   1.981       .  S
Cd56         O60   2.065       .  S
Cd56         O69   2.067       .  S
Cd56         O58   1.978       .  S
O57          C67   1.275       .  A
O58         Cd59   2.003       .  S
Cd59         O61   2.086       .  S
O60          C67   1.275       .  A
C62          O66   1.274       .  A
C62        C4177   1.482       .  S
C63        C4137   1.477       .  S
C65        C4097   1.484       .  S
C67        C4161   1.470       .  S
C68          O69   1.276       .  A
C68        C4145   1.493       .  S
O70          C86   1.274       .  A
O70         Zn76   2.001       .  S
C71          O87   1.274       .  A
C71          O84   1.277       .  A
C71        C4009   1.478       .  S
O72          C85   1.276       .  A
O72         Cd79   2.076       .  S
O73          C91   1.281       .  A
O73         Cd82   2.112       .  S
O74          C88   1.277       .  A
O74         Cd78   2.072       .  S
O75          C86   1.277       .  A
O75         Cd78   2.087       .  S
Zn76         O87   2.003       .  S
Zn76         O89   2.021       .  S
Zn76         O81   1.920       .  S
O77          C88   1.280       .  A
O77         Cd82   2.089       .  S
Cd78         O80   2.079       .  S
Cd78         O81   1.992       .  S
Cd79         O83   2.076       .  S
Cd79         O92   2.050       .  S
Cd79         O81   1.978       .  S
O80          C90   1.276       .  A
O81         Cd82   2.000       .  S
Cd82         O84   2.080       .  S
O83          C90   1.277       .  A
C85          O89   1.274       .  A
C85        C4081   1.484       .  S
C86        C4033   1.478       .  S
C88        C4025   1.486       .  S
C90        C4073   1.479       .  S
C91          O92   1.274       .  A
C91        C4049   1.488       .  S
O93         C109   1.271       .  A
O93         Zn99   2.004       .  S
C94         O110   1.273       .  A
C94         O107   1.281       .  A
C94        C3913   1.479       .  S
O95         C108   1.279       .  A
O95        Cd102   2.095       .  S
O96         C114   1.282       .  A
O96        Cd105   2.111       .  S
O97         C111   1.280       .  A
O97        Cd101   2.088       .  S
O98         C109   1.278       .  A
O98        Cd101   2.108       .  S
Zn99        O110   1.987       .  S
Zn99        O112   1.960       .  S
Zn99        O104   1.894       .  S
O100        C111   1.277       .  A
O100       Cd105   2.069       .  S
Cd101       O103   2.060       .  S
Cd101       O104   1.980       .  S
Cd102       O106   2.092       .  S
Cd102       O115   2.085       .  S
Cd102       O104   1.984       .  S
O103        C113   1.277       .  A
O104       Cd105   1.991       .  S
Cd105       O107   2.100       .  S
O106        C113   1.281       .  A
C108        O112   1.270       .  A
C108       C3969   1.476       .  S
C109       C3945   1.489       .  S
C111       C3929   1.479       .  S
C113       C3985   1.479       .  S
C114        O115   1.278       .  A
C114       C3961   1.495       .  S
O116        C132   1.281       .  A
O116       Zn122   2.037       .  S
C117        O133   1.276       .  A
C117        O130   1.277       .  A
C117       C3849   1.489       .  S
O118        C131   1.280       .  A
O118       Cd125   2.083       .  S
O119        C137   1.276       .  A
O119       Cd128   2.059       .  S
O120        C134   1.275       .  A
O120       Cd124   2.056       .  S
O121        C132   1.279       .  A
O121       Cd124   2.083       .  S
Zn122       O133   2.036       .  S
Zn122       O135   1.989       .  S
Zn122       O127   1.908       .  S
O123        C134   1.278       .  A
O123       Cd128   2.068       .  S
Cd124       O126   2.091       .  S
Cd124       O127   1.981       .  S
Cd125       O129   2.081       .  S
Cd125       O138   2.081       .  S
Cd125       O127   1.983       .  S
O126        C136   1.279       .  A
O127       Cd128   1.971       .  S
Cd128       O130   2.095       .  S
O129        C136   1.276       .  A
C131        O135   1.274       .  A
C131       C3873   1.478       .  S
C132       C3809   1.490       .  S
C134       C3825   1.476       .  S
C136       C3857   1.491       .  S
C137        O138   1.279       .  A
C137       C3889   1.476       .  S
O139        C155   1.276       .  A
O139       Zn145   2.009       .  S
C140        O156   1.275       .  A
C140        O153   1.277       .  A
C140       C3761   1.481       .  S
O141        C154   1.275       .  A
O141       Cd148   2.067       .  S
O142        C160   1.276       .  A
O142       Cd151   2.076       .  S
O143        C157   1.276   1_455  A
O143       Cd147   2.069       .  S
O144        C155   1.280       .  A
O144       Cd147   2.091       .  S
Zn145       O156   2.014   1_455  S
Zn145       O158   2.002       .  S
Zn145       O150   1.913       .  S
O146        C157   1.278       .  A
O146       Cd151   2.072       .  S
Cd147       O149   2.106       .  S
Cd147       O150   1.994       .  S
Cd148       O152   2.056       .  S
Cd148       O161   2.063   1_455  S
Cd148       O150   1.975       .  S
O149        C159   1.281       .  A
O150       Cd151   1.986   1_455  S
Cd151       O153   2.084       .  S
O152        C159   1.275       .  A
C154        O158   1.273       .  A
C154       C3801   1.479       .  S
C155       C3721   1.484       .  S
C157       C3729   1.482       .  S
C159       C3745   1.485       .  S
C160        O161   1.275       .  A
C160       C3777   1.473       .  S
O162        C178   1.271       .  A
O162       Zn168   1.995       .  S
C163        O179   1.272       .  A
C163        O176   1.281       .  A
C163       C3617   1.487       .  S
O164        C177   1.278       .  A
O164       Cd171   2.084       .  S
O165        C183   1.284       .  A
O165       Cd174   2.127       .  S
O166        C180   1.277       .  A
O166       Cd170   2.064       .  S
O167        C178   1.277       .  A
O167       Cd170   2.094       .  S
Zn168       O179   1.983   1_545  S
Zn168       O181   2.003   1_545  S
Zn168       O173   1.908       .  S
O169        C180   1.279       .  A
O169       Cd174   2.083   1_545  S
Cd170       O172   2.059       .  S
Cd170       O173   1.983       .  S
Cd171       O175   2.090   1_565  S
Cd171       O184   2.056       .  S
Cd171       O173   1.982   1_565  S
O172        C182   1.274       .  A
O173       Cd174   2.015   1_545  S
Cd174       O176   2.112       .  S
O175        C182   1.277       .  A
C177        O181   1.274       .  A
C177       C3681   1.483       .  S
C178       C3649   1.484       .  S
C180       C3641   1.481       .  S
C182       C3697   1.473       .  S
C183        O184   1.276       .  A
C183       C3665   1.492       .  S
O185        C201   1.274       .  A
O185       Zn191   2.000       .  S
C186        O202   1.272       .  A
C186        O199   1.276       .  A
C186       C3553   1.481       .  S
O187        C200   1.281       .  A
O187       Cd194   2.109       .  S
O188        C206   1.275       .  A
O188       Cd197   2.057       .  S
O189        C203   1.276       .  A
O189       Cd193   2.064       .  S
O190        C201   1.278       .  A
O190       Cd193   2.089       .  S
Zn191       O202   1.995       .  S
Zn191       O204   1.981       .  S
Zn191       O196   1.902       .  S
O192        C203   1.280       .  A
O192       Cd197   2.086       .  S
Cd193       O195   2.093       .  S
Cd193       O196   1.993       .  S
Cd194       O198   2.071       .  S
Cd194       O207   2.097       .  S
Cd194       O196   1.997       .  S
O195        C205   1.279       .  A
O196       Cd197   1.992       .  S
Cd197       O199   2.092       .  S
O198        C205   1.276       .  A
C200        O204   1.272       .  A
C200       C3601   1.486       .  S
C201       C3521   1.484       .  S
C203       C3537   1.482       .  S
C205       C3569   1.484       .  S
C206        O207   1.279       .  A
C206       C3593   1.471       .  S
C208        C209   1.540       .  S
C208        C214   1.538       .  S
C208        C212   1.545       .  S
C208       C3505   1.534       .  S
C209        H216   1.086       .  S
C209        C210   1.370       .  D
C210        C211   1.541       .  S
C210       C3489   1.486       .  S
C211        C215   1.533       .  S
C211        C213   1.547       .  S
C211        H217   1.109       .  S
C212        H218   1.081       .  S
C212        C213   1.371       .  D
C213       C3577   1.496       .  S
C214        H219   1.086       .  S
C214        C215   1.359       .  D
C215       C3689   1.480       .  S
C220        C221   1.539       .  S
C220        C226   1.532       .  S
C220        C224   1.534       .  S
C220       C3481   1.519       .  S
C221        H228   1.086       .  S
C221        C222   1.365       .  D
C222        C223   1.540       .  S
C222       C3657   1.475       .  S
C223        C227   1.537       .  S
C223        C225   1.547       .  S
C223        H229   1.110       .  S
C224        H230   1.081       .  S
C224        C225   1.365       .  D
C225       C3457   1.483       .  S
C226        H231   1.087       .  S
C226        C227   1.361       .  D
C227       C3785   1.480       .  S
C232        C233   1.535       .  S
C232        C238   1.524       .  S
C232        C236   1.549       .  S
C232       C3441   1.535       .  S
C233        H240   1.084       .  S
C233        C234   1.373       .  D
C234        C235   1.554       .  S
C234       C3409   1.509       .  S
C235        C239   1.545       .  S
C235        C237   1.552       .  S
C235        H241   1.104       .  S
C236        H242   1.081       .  S
C236        C237   1.379       .  D
C237       C3425   1.508       .  S
C238        H243   1.087       .  S
C238        C239   1.358       .  D
C239       C3585   1.489       .  S
C244        C245   1.549       .  S
C244        C250   1.540       .  S
C244        C248   1.542       .  S
C244       C3393   1.533       .  S
C245        H252   1.081       .  S
C245        C246   1.366       .  D
C246        C247   1.534       .  S
C246       C3385   1.482       .  S
C247        C251   1.532       .  S
C247        C249   1.541       .  S
C247        H253   1.111       .  S
C248        H254   1.086       .  S
C248        C249   1.369       .  D
C249       C3753   1.486       .  S
C250        H255   1.087       .  S
C250        C251   1.362       .  D
C251       C3993   1.476       .  S
C256        C257   1.543       .  S
C256        C262   1.529       .  S
C256        C260   1.533       .  S
C256       C3361   1.521       .  S
C257        H264   1.082       .  S
C257        C258   1.379       .  D
C258        C259   1.560       .  S
C258       C3953   1.506       .  S
C259        C263   1.538       .  S
C259        C261   1.541       .  S
C259        H265   1.107       .  S
C260        H266   1.086       .  S
C260        C261   1.362       .  D
C261       C3345   1.483       .  S
C262        H267   1.087       .  S
C262        C263   1.357       .  D
C263       C3329   1.482       .  S
C268        C269   1.546       .  S
C268        C274   1.534       .  S
C268        C272   1.539       .  S
C268       C4305   1.527       .  S
C269        H276   1.081       .  S
C269        C270   1.365       .  D
C270        C271   1.536       .  S
C270       C3313   1.480       .  S
C271        C275   1.535       .  S
C271        C273   1.541       .  S
C271        H277   1.111       .  S
C272        H278   1.086       .  S
C272        C273   1.368       .  D
C273       C3289   1.481       .  S
C274        H279   1.087       .  S
C274        C275   1.361       .  D
C275       C3305   1.477       .  S
O280        C296   1.275       .  A
O280       Zn286   2.040   1_455  S
C281        O297   1.274       .  A
C281        O294   1.279       .  A
C281       C3497   1.487       .  S
O282        C295   1.277       .  A
O282       Cd289   2.084       .  S
O283        C301   1.279       .  A
O283       Cd292   2.100   1_655  S
O284        C298   1.274       .  A
O284       Cd288   2.055   1_565  S
O285        C296   1.272       .  A
O285       Cd288   2.063       .  S
Zn286       O297   2.003   1_545  S
Zn286       O299   1.988       .  S
Zn286       O291   1.935   1_655  S
O287        C298   1.280       .  A
O287       Cd292   2.089       .  S
Cd288       O290   2.041       .  S
Cd288       O291   1.992       .  S
Cd289       O293   2.094   1_655  S
Cd289       O302   2.087       .  S
Cd289       O291   2.012   1_655  S
O290        C300   1.270       .  A
O291       Cd292   2.012   1_545  S
Cd292       O294   2.109   1_455  S
O293        C300   1.278       .  A
C295        O299   1.272       .  A
C295       C3465   1.477       .  S
C296       C3377   1.479       .  S
C298       C3321   1.477       .  S
C300       C3353   1.480       .  S
C301        O302   1.278   1_565  A
C301       C3433   1.495       .  S
O303        C319   1.275       .  A
O303       Zn309   2.037       .  S
C304        O320   1.279       .  A
C304        O317   1.279       .  A
C304       C3201   1.492       .  S
O305        C318   1.284       .  A
O305       Cd312   2.119       .  S
O306        C324   1.281       .  A
O306       Cd315   2.104       .  S
O307        C321   1.271       .  A
O307       Cd311   2.031       .  S
O308        C319   1.272       .  A
O308       Cd311   2.071       .  S
Zn309       O320   2.036       .  S
Zn309       O322   1.969       .  S
Zn309       O314   1.918       .  S
O310        C321   1.278       .  A
O310       Cd315   2.084       .  S
Cd311       O313   2.030       .  S
Cd311       O314   1.969       .  S
Cd312       O316   2.124       .  S
Cd312       O325   2.093       .  S
Cd312       O314   2.010       .  S
O313        C323   1.271       .  A
O314       Cd315   1.997       .  S
Cd315       O317   2.089       .  S
O316        C323   1.282       .  A
C318        O322   1.271       .  A
C318       C3249   1.484       .  S
C319       C3217   1.479       .  S
C321       C3473   1.475       .  S
C323       C3265   1.475       .  S
C324        O325   1.278       .  A
C324       C3233   1.494       .  S
O326        C342   1.274       .  A
O326       Zn332   2.016   1_455  S
C327        O343   1.275       .  A
C327        O340   1.281       .  A
C327       C3137   1.483       .  S
O328        C341   1.277       .  A
O328       Cd335   2.086       .  S
O329        C347   1.283       .  A
O329       Cd338   2.122       .  S
O330        C344   1.280       .  A
O330       Cd334   2.088       .  S
O331        C342   1.278       .  A
O331       Cd334   2.106       .  S
Zn332       O343   1.991       .  S
Zn332       O345   1.992       .  S
Zn332       O337   1.897   1_655  S
O333        C344   1.279   1_655  A
O333       Cd338   2.087       .  S
Cd334       O336   2.064       .  S
Cd334       O337   1.984       .  S
Cd335       O339   2.079   1_655  S
Cd335       O348   2.061       .  S
Cd335       O337   1.979   1_655  S
O336        C346   1.277       .  A
O337       Cd338   1.994   1_455  S
Cd338       O340   2.098       .  S
O339        C346   1.279       .  A
C341        O345   1.272       .  A
C341       C3193   1.483       .  S
C342       C3169   1.488       .  S
C344       C3161   1.486       .  S
C346       C3297   1.474       .  S
C347        O348   1.275       .  A
C347       C3417   1.491       .  S
C349        C350   1.545       .  S
C349        C355   1.522       .  S
C349        C353   1.534       .  S
C349       C3121   1.528       .  S
C350        H357   1.083       .  S
C350        C351   1.373       .  D
C351        C352   1.552       .  S
C351       C3177   1.497       .  S
C352        C356   1.547       .  S
C352        C354   1.554       .  S
C352        H358   1.107       .  S
C353        H359   1.084       .  S
C353        C354   1.370       .  D
C354       C3105   1.503       .  S
C355        H360   1.086       .  S
C355        C356   1.361       .  D
C356       C4361   1.495       .  S
C361        C362   1.541       .  S
C361        C367   1.530       .  S
C361        C365   1.546       .  S
C361       C3921   1.527       .  S
C362        H369   1.084       .  S
C362        C363   1.368       .  D
C363        C364   1.548       .  S
C363       C4153   1.502       .  S
C364        C368   1.537       .  S
C364        C366   1.546       .  S
C364        H370   1.103       .  S
C365        H371   1.084       .  S
C365        C366   1.374       .  D
C366       C3097   1.499       .  S
C367        H372   1.086       .  S
C367        C368   1.361       .  D
C368       C3793   1.486       .  S
C373        C374   1.545       .  S
C373        C379   1.525       .  S
C373        C377   1.541       .  S
C373       C3545   1.524       .  S
C374        H381   1.085       .  S
C374        C375   1.368       .  D
C375        C376   1.538       .  S
C375       C3073   1.477       .  S
C376        C380   1.543       .  S
C376        C378   1.548       .  S
C376        H382   1.110       .  S
C377        H383   1.085       .  S
C377        C378   1.369       .  D
C378       C3065   1.494       .  S
C379        H384   1.087       .  S
C379        C380   1.361       .  D
C380       C3185   1.484       .  S
C385        C386   1.544       .  S
C385        C391   1.529       .  S
C385        C389   1.538       .  S
C385       C3833   1.519       .  S
C386        H393   1.086       .  S
C386        C387   1.369       .  D
C387        C388   1.538       .  S
C387       C3041   1.477       .  S
C388        C392   1.541       .  S
C388        C390   1.545       .  S
C388        H394   1.111       .  S
C389        H395   1.084       .  S
C389        C390   1.365       .  D
C390       C3769   1.484       .  S
C391        H396   1.087       .  S
C391        C392   1.358       .  D
C392       C3273   1.484       .  S
C397        C398   1.542       .  S
C397        C403   1.538       .  S
C397        C401   1.540       .  S
C397       C3033   1.535       .  S
C398        H405   1.084       .  S
C398        C399   1.377       .  D
C399        C400   1.552       .  S
C399       C3241   1.511       .  S
C400        C404   1.539       .  S
C400        C402   1.543       .  S
C400        H406   1.103       .  S
C401        H407   1.078       .  S
C401        C402   1.361       .  D
C402       C3009   1.490       .  S
C403        H408   1.085       .  S
C403        C404   1.365       .  D
C404       C2993   1.492       .  S
C409        C410   1.533       .  S
C409        C415   1.530       .  S
C409        C413   1.547       .  S
C409       C2977   1.524       .  S
C410        H417   1.086       .  S
C410        C411   1.361       .  D
C411        C412   1.540       .  S
C411       C2961   1.477       .  S
C412        C416   1.536       .  S
C412        C414   1.550       .  S
C412        H418   1.106       .  S
C413        H419   1.079       .  S
C413        C414   1.377       .  D
C414       C4321   1.506       .  S
C415        H420   1.087       .  S
C415        C416   1.359       .  D
C416       C4169   1.477       .  S
O421        C437   1.276       .  A
O421       Zn427   2.020       .  S
C422        O438   1.276       .  A
C422        O435   1.274       .  A
C422       C3081   1.485       .  S
O423        C436   1.279       .  A
O423       Cd430   2.103       .  S
O424        C442   1.271       .  A
O424       Cd433   2.035       .  S
O425        C439   1.277       .  A
O425       Cd429   2.093   1_655  S
O426        C437   1.275       .  A
O426       Cd429   2.069       .  S
Zn427       O438   2.036   1_455  S
Zn427       O440   2.009       .  S
Zn427       O432   1.939   1_455  S
O428        C439   1.275       .  A
O428       Cd433   2.062       .  S
Cd429       O431   2.063       .  S
Cd429       O432   2.001   1_455  S
Cd430       O434   2.097       .  S
Cd430       O443   2.096   1_455  S
Cd430       O432   2.023   1_455  S
O431        C441   1.276       .  A
O432       Cd433   1.980       .  S
Cd433       O435   2.068       .  S
O434        C441   1.279       .  A
C436        O440   1.274       .  A
C436       C3113   1.488       .  S
C437       C2969   1.480       .  S
C439       C3049   1.486       .  S
C441       C3089   1.486       .  S
C442        O443   1.278       .  A
C442       C3017   1.479       .  S
C444        C445   1.550       .  S
C444        C450   1.535       .  S
C444        C448   1.544       .  S
C444       C2953   1.540       .  S
C445        H452   1.078       .  S
C445        C446   1.377       .  D
C446        C447   1.549       .  S
C446       C2937   1.508       .  S
C447        C451   1.535       .  S
C447        C449   1.541       .  S
C447        H453   1.107       .  S
C448        H454   1.086       .  S
C448        C449   1.369       .  D
C449       C3841   1.489       .  S
C450        H455   1.087       .  S
C450        C451   1.359       .  D
C451       C4065   1.478       .  S
C456        C457   1.538       .  S
C456        C462   1.531       .  S
C456        C460   1.548       .  S
C456       C2913   1.531       .  S
C457        H464   1.083       .  S
C457        C458   1.374       .  D
C458        C459   1.555       .  S
C458       C4233   1.506       .  S
C459        C463   1.539       .  S
C459        C461   1.538       .  S
C459        H465   1.107       .  S
C460        H466   1.083       .  S
C460        C461   1.367       .  D
C461       C2897   1.487       .  S
C462        H467   1.086       .  S
C462        C463   1.363       .  D
C463       C3881   1.486       .  S
C468        C469   1.554       .  S
C468        C474   1.533       .  S
C468        C472   1.536       .  S
C468       C2881   1.530       .  S
C469        H476   1.082       .  S
C469        C470   1.379       .  D
C470        C471   1.549       .  S
C470       C2865   1.505       .  S
C471        C475   1.533       .  S
C471        C473   1.544       .  S
C471        H477   1.107       .  S
C472        H478   1.086       .  S
C472        C473   1.364       .  D
C473       C2833   1.490       .  S
C474        H479   1.087       .  S
C474        C475   1.357       .  D
C475       C2849   1.477       .  S
C480        C481   1.546       .  S
C480        C486   1.536       .  S
C480        C484   1.550       .  S
C480       C2825   1.531       .  S
C481        H488   1.085       .  S
C481        C482   1.371       .  D
C482        C483   1.539       .  S
C482       C2785   1.493       .  S
C483        C487   1.531       .  S
C483        C485   1.531       .  S
C483        H489   1.109       .  S
C484        H490   1.084       .  S
C484        C485   1.368       .  D
C485       C2801   1.476       .  S
C486        H491   1.086       .  S
C486        C487   1.362       .  D
C487       C2769   1.480       .  S
C492        C493   1.549       .  S
C492        C498   1.529       .  S
C492        C496   1.534       .  S
C492       C2753   1.525       .  S
C493        H500   1.081       .  S
C493        C494   1.372       .  D
C494        C495   1.544       .  S
C494       C2745   1.494       .  S
C495        C499   1.537       .  S
C495        C497   1.543       .  S
C495        H501   1.110       .  S
C496        H502   1.086       .  S
C496        C497   1.364       .  D
C497       C2721   1.481       .  S
C498        H503   1.087       .  S
C498        C499   1.360       .  D
C499       C4265   1.476       .  S
C504        C505   1.545       .  S
C504        C510   1.536       .  S
C504        C508   1.537       .  S
C504       C4121   1.529       .  S
C505        H512   1.080       .  S
C505        C506   1.372       .  D
C506        C507   1.552       .  S
C506       C4057   1.500       .  S
C507        C511   1.535       .  S
C507        C509   1.543       .  S
C507        H513   1.108       .  S
C508        H514   1.086       .  S
C508        C509   1.366       .  D
C509       C2713   1.487       .  S
C510        H515   1.087       .  S
C510        C511   1.359       .  D
C511       C2697   1.476       .  S
O516        C532   1.276       .  A
O516       Zn522   2.026       .  S
C517        O533   1.275       .  A
C517        O530   1.278       .  A
C517       C2905   1.489       .  S
O518        C531   1.279       .  A
O518       Cd525   2.111       .  S
O519        C537   1.278       .  A
O519       Cd528   2.083       .  S
O520        C534   1.277       .  A
O520       Cd524   2.078   1_554  S
O521        C532   1.277       .  A
O521       Cd524   2.086       .  S
Zn522       O533   2.025   1_556  S
Zn522       O535   2.023       .  S
Zn522       O527   1.948       .  S
O523        C534   1.279       .  A
O523       Cd528   2.101       .  S
Cd524       O526   2.087       .  S
Cd524       O527   2.007       .  S
Cd525       O529   2.101       .  S
Cd525       O538   2.085       .  S
Cd525       O527   2.023       .  S
O526        C536   1.278       .  A
O527       Cd528   2.021   1_556  S
Cd528       O530   2.097       .  S
O529        C536   1.279       .  A
C531        O535   1.275       .  A
C531       C2737   1.487       .  S
C532       C2809   1.487       .  S
C534       C2705   1.490       .  S
C536       C2873   1.492       .  S
C537        O538   1.278   1_554  A
C537       C2929   1.488       .  S
O539        C555   1.275       .  A
O539       Zn545   2.024       .  S
C540        O556   1.280       .  A
C540        O553   1.274       .  A
C540       C3129   1.482       .  S
O541        C554   1.278       .  A
O541       Cd548   2.077       .  S
O542        C560   1.275       .  A
O542       Cd551   2.067       .  S
O543        C557   1.276       .  A
O543       Cd547   2.065       .  S
O544        C555   1.276       .  A
O544       Cd547   2.077       .  S
Zn545       O556   2.045       .  S
Zn545       O558   2.011       .  S
Zn545       O550   1.921       .  S
O546        C557   1.275       .  A
O546       Cd551   2.062       .  S
Cd547       O549   2.063       .  S
Cd547       O550   1.979       .  S
Cd548       O552   2.085       .  S
Cd548       O561   2.082       .  S
Cd548       O550   1.985       .  S
O549        C559   1.275       .  A
O550       Cd551   1.978       .  S
Cd551       O553   2.057       .  S
O552        C559   1.279       .  A
C554        O558   1.276       .  A
C554       C2673   1.481       .  S
C555       C2657   1.480       .  S
C557       C2649   1.478       .  S
C559       C2857   1.478       .  S
C560        O561   1.277       .  A
C560       C2793   1.481       .  S
C562        C563   1.528       .  S
C562        C568   1.532       .  S
C562        C566   1.534       .  S
C562       C3529   1.532       .  S
C563        H570   1.085       .  S
C563        C564   1.371       .  D
C564        C565   1.555       .  S
C564       C2633   1.498       .  S
C565        C569   1.541       .  S
C565        C567   1.559       .  S
C565        H571   1.107       .  S
C566        H572   1.075       .  S
C566        C567   1.375       .  D
C567       C3865   1.512       .  S
C568        H573   1.087       .  S
C568        C569   1.361       .  D
C569       C2609   1.486       .  S
C574        C575   1.547       .  S
C574        C580   1.526       .  S
C574        C578   1.536       .  S
C574       C2593   1.530       .  S
C575        H582   1.085       .  S
C575        C576   1.375       .  D
C576        C577   1.547       .  S
C576       C2577   1.499       .  S
C577        C581   1.544       .  S
C577        C579   1.553       .  S
C577        H583   1.105       .  S
C578        H584   1.081       .  S
C578        C579   1.371       .  D
C579       C2561   1.498       .  S
C580        H585   1.086       .  S
C580        C581   1.357       .  D
C581       C3257   1.494       .  S
C586        C587   1.541       .  S
C586        C592   1.538       .  S
C586        C590   1.544       .  S
C586       C2545   1.530       .  S
C587        H594   1.085       .  S
C587        C588   1.374       .  D
C588        C589   1.543       .  S
C588       C2529   1.492       .  S
C589        C593   1.537       .  S
C589        C591   1.532       .  S
C589        H595   1.108       .  S
C590        H596   1.082       .  S
C590        C591   1.361       .  D
C591       C4337   1.471       .  S
C592        H597   1.086       .  S
C592        C593   1.362       .  D
C593       C2681   1.488       .  S
C598        C599   1.539       .  S
C598        C604   1.531       .  S
C598        C602   1.541       .  S
C598       C4105   1.528       .  S
C599        H606   1.086       .  S
C599        C600   1.369       .  D
C600        C601   1.549       .  S
C600       C2497   1.492       .  S
C601        C605   1.547       .  S
C601        C603   1.542       .  S
C601        H607   1.109       .  S
C602        H608   1.082       .  S
C602        C603   1.364       .  D
C603       C2521   1.483       .  S
C604        H609   1.086       .  S
C604        C605   1.365       .  D
C605       C4377   1.491       .  S
C610        C611   1.539       .  S
C610        C616   1.537       .  S
C610        C614   1.549       .  S
C610       C4017   1.533       .  S
C611        H618   1.086       .  S
C611        C612   1.369       .  D
C612        C613   1.542       .  S
C612       C3225   1.485       .  S
C613        C617   1.533       .  S
C613        C615   1.539       .  S
C613        H619   1.111       .  S
C614        H620   1.081       .  S
C614        C615   1.367       .  D
C615       C2481   1.487       .  S
C616        H621   1.087       .  S
C616        C617   1.362       .  D
C617       C3897   1.476       .  S
C622        C623   1.535       .  S
C622        C628   1.531       .  S
C622        C626   1.544       .  S
C622       C3905   1.526       .  S
C623        H630   1.084       .  S
C623        C624   1.363       .  D
C624        C625   1.546       .  S
C624       C2665   1.487       .  S
C625        C629   1.537       .  S
C625        C627   1.546       .  S
C625        H631   1.110       .  S
C626        H632   1.085       .  S
C626        C627   1.372       .  D
C627       C2465   1.490       .  S
C628        H633   1.087       .  S
C628        C629   1.361       .  D
C629       C2449   1.475       .  S
O634        C650   1.276       .  A
O634       Zn640   2.031       .  S
C635        O651   1.276       .  A
C635        O648   1.277       .  A
C635       C2489   1.481       .  S
O636        C649   1.277       .  A
O636       Cd643   2.092       .  S
O637        C655   1.273       .  A
O637       Cd646   2.052       .  S
O638        C652   1.277       .  A
O638       Cd642   2.081       .  S
O639        C650   1.278       .  A
O639       Cd642   2.100       .  S
Zn640       O651   2.029       .  S
Zn640       O653   2.034       .  S
Zn640       O645   1.951       .  S
O641        C652   1.277       .  A
O641       Cd646   2.095       .  S
Cd642       O644   2.084       .  S
Cd642       O645   2.011       .  S
Cd643       O647   2.081       .  S
Cd643       O656   2.112       .  S
Cd643       O645   2.021       .  S
O644        C654   1.278       .  A
O645       Cd646   2.007       .  S
Cd646       O648   2.084       .  S
O647        C654   1.277       .  A
C649        O653   1.276       .  A
C649       C2585   1.484       .  S
C650       C2473   1.487       .  S
C652       C2513   1.485       .  S
C654       C2537   1.483       .  S
C655        O656   1.281       .  A
C655       C2625   1.488       .  S
O657        C673   1.273       .  A
O657       Zn663   1.996       .  S
C658        O674   1.273       .  A
C658        O671   1.277       .  A
C658       C2729   1.482       .  S
O659        C672   1.277       .  A
O659       Cd666   2.091       .  S
O660        C678   1.274       .  A
O660       Cd669   2.056       .  S
O661        C675   1.276       .  A
O661       Cd665   2.073       .  S
O662        C673   1.278       .  A
O662       Cd665   2.080       .  S
Zn663       O674   1.991       .  S
Zn663       O676   1.996       .  S
Zn663       O668   1.900       .  S
O664        C675   1.280       .  A
O664       Cd669   2.086       .  S
Cd665       O667   2.090       .  S
Cd665       O668   1.989       .  S
Cd666       O670   2.047       .  S
Cd666       O679   2.079       .  S
Cd666       O668   1.986       .  S
O667        C677   1.280       .  A
O668       Cd669   1.985       .  S
Cd669       O671   2.086       .  S
O670        C677   1.274       .  A
C672        O676   1.273       .  A
C672       C2777   1.484       .  S
C673       C2553   1.480       .  S
C675       C2401   1.486       .  S
C677       C2417   1.481       .  S
C678        O679   1.277       .  A
C678       C2433   1.468       .  S
O680        C696   1.276       .  A
O680       Zn686   2.015   1_565  S
C681        O697   1.274       .  A
C681        O694   1.278       .  A
C681       C2345   1.484       .  S
O682        C695   1.277       .  A
O682       Cd689   2.075       .  S
O683        C701   1.277       .  A
O683       Cd692   2.079       .  S
O684        C698   1.280       .  A
O684       Cd688   2.092   1_545  S
O685        C696   1.280       .  A
O685       Cd688   2.100       .  S
Zn686       O697   2.008       .  S
Zn686       O699   2.019   1_545  S
Zn686       O691   1.916       .  S
O687        C698   1.278       .  A
O687       Cd692   2.072       .  S
Cd688       O690   2.125       .  S
Cd688       O691   2.006   1_565  S
Cd689       O693   2.050       .  S
Cd689       O702   2.090   1_565  S
Cd689       O691   1.984   1_565  S
O690        C700   1.284       .  A
O691       Cd692   1.988       .  S
Cd692       O694   2.096       .  S
O693        C700   1.274       .  A
C695        O699   1.275       .  A
C695       C2369   1.484       .  S
C696       C2329   1.488       .  S
C698       C3401   1.487       .  S
C700       C2353   1.493       .  S
C701        O702   1.278       .  A
C701       C2385   1.482       .  S
O703        C719   1.275       .  A
O703       Zn709   2.017   1_556  S
C704        O720   1.277       .  A
C704        O717   1.278       .  A
C704       C2249   1.479       .  S
O705        C718   1.282       .  A
O705       Cd712   2.103       .  S
O706        C724   1.278       .  A
O706       Cd715   2.080       .  S
O707        C721   1.280       .  A
O707       Cd711   2.097       .  S
O708        C719   1.276       .  A
O708       Cd711   2.077       .  S
Zn709       O720   2.019       .  S
Zn709       O722   2.025       .  S
Zn709       O714   1.916       .  S
O710        C721   1.276   1_554  A
O710       Cd715   2.071       .  S
Cd711       O713   2.045       .  S
Cd711       O714   1.980   1_556  S
Cd712       O716   2.094   1_554  S
Cd712       O725   2.050       .  S
Cd712       O714   1.990       .  S
O713        C723   1.272       .  A
O714       Cd715   1.985       .  S
Cd715       O717   2.083       .  S
O716        C723   1.279       .  A
C718        O722   1.277       .  A
C718       C2305   1.492       .  S
C719       C2273   1.472       .  S
C721       C2817   1.490       .  S
C723       C2297   1.466       .  S
C724        O725   1.273       .  A
C724       C2257   1.476       .  S
C726        C727   1.544       .  S
C726        C732   1.530       .  S
C726        C730   1.530       .  S
C726       C2233   1.522       .  S
C727        H734   1.084       .  S
C727        C728   1.368       .  D
C728        C729   1.543       .  S
C728       C2209   1.482       .  S
C729        C733   1.542       .  S
C729        C731   1.549       .  S
C729        H735   1.108       .  S
C730        H736   1.085       .  S
C730        C731   1.366       .  D
C731       C2425   1.488       .  S
C732        H737   1.086       .  S
C732        C733   1.364       .  D
C733       C2289   1.494       .  S
C738        C739   1.540       .  S
C738        C744   1.533       .  S
C738        C742   1.542       .  S
C738       C4217   1.529       .  S
C739        H746   1.086       .  S
C739        C740   1.368       .  D
C740        C741   1.537       .  S
C740       C2177   1.476       .  S
C741        C745   1.536       .  S
C741        C743   1.540       .  S
C741        H747   1.108       .  S
C742        H748   1.079       .  S
C742        C743   1.369       .  D
C743       C2201   1.489       .  S
C744        H749   1.087       .  S
C744        C745   1.360       .  D
C745       C2441   1.480       .  S
C750        C751   1.537       .  S
C750        C756   1.540       .  S
C750        C754   1.544       .  S
C750       C2161   1.535       .  S
C751        H758   1.078       .  S
C751        C752   1.363       .  D
C752        C753   1.540       .  S
C752       C2265   1.488       .  S
C753        C757   1.535       .  S
C753        C755   1.546       .  S
C753        H759   1.105       .  S
C754        H760   1.085       .  S
C754        C755   1.377       .  D
C755       C2153   1.499       .  S
C756        H761   1.086       .  S
C756        C757   1.363       .  D
C757       C2377   1.487       .  S
C762        C763   1.546       .  S
C762        C768   1.535       .  S
C762        C766   1.539       .  S
C762       C2137   1.532       .  S
C763        H770   1.081       .  S
C763        C764   1.368       .  D
C764        C765   1.541       .  S
C764       C2113   1.487       .  S
C765        C769   1.541       .  S
C765        C767   1.541       .  S
C765        H771   1.111       .  S
C766        H772   1.086       .  S
C766        C767   1.365       .  D
C767       C2337   1.484       .  S
C768        H773   1.086       .  S
C768        C769   1.366       .  D
C769       C4089   1.483       .  S
C774        C775   1.544       .  S
C774        C780   1.533       .  S
C774        C778   1.536       .  S
C774       C2105   1.539       .  S
C775        H782   1.086       .  S
C775        C776   1.375       .  D
C776        C777   1.545       .  S
C776       C2081   1.492       .  S
C777        C781   1.543       .  S
C777        C779   1.549       .  S
C777        H783   1.110       .  S
C778        H784   1.080       .  S
C778        C779   1.365       .  D
C779       C2065   1.496       .  S
C780        H785   1.087       .  S
C780        C781   1.364       .  D
C781       C2049   1.487       .  S
C786        C787   1.537       .  S
C786        C792   1.532       .  S
C786        C790   1.549       .  S
C786       C3633   1.527       .  S
C787        H794   1.086       .  S
C787        C788   1.363       .  D
C788        C789   1.537       .  S
C788       C4041   1.478       .  S
C789        C793   1.534       .  S
C789        C791   1.547       .  S
C789        H795   1.107       .  S
C790        H796   1.080       .  S
C790        C791   1.378       .  D
C791       C2041   1.503       .  S
C792        H797   1.087       .  S
C792        C793   1.358       .  D
C793       C2025   1.476       .  S
O798        C814   1.275       .  A
O798       Zn804   2.017   1_565  S
C799        O815   1.274       .  A
C799        O812   1.278       .  A
C799       C2089   1.489       .  S
O800        C813   1.272   1_554  A
O800       Cd807   2.058       .  S
O801        C819   1.280       .  A
O801       Cd810   2.098       .  S
O802        C816   1.279       .  A
O802       Cd806   2.093       .  S
O803        C814   1.279       .  A
O803       Cd806   2.096   1_566  S
Zn804       O815   2.021       .  S
Zn804       O817   2.005   1_545  S
Zn804       O809   1.945   1_556  S
O805        C816   1.277       .  A
O805       Cd810   2.077       .  S
Cd806       O808   2.097   1_545  S
Cd806       O809   2.014       .  S
Cd807       O811   2.071       .  S
Cd807       O820   2.067   1_565  S
Cd807       O809   2.004   1_565  S
O808        C818   1.278       .  A
O809       Cd810   2.014       .  S
Cd810       O812   2.106   1_554  S
O811        C818   1.274       .  A
C813        O817   1.272       .  A
C813       C2193   1.475       .  S
C814       C2217   1.487       .  S
C816       C2121   1.479       .  S
C818       C2145   1.487       .  S
C819        O820   1.276       .  A
C819       C2033   1.487       .  S
O821        C837   1.276       .  A
O821       Zn827   2.009       .  S
C822        O838   1.274       .  A
C822        O835   1.273       .  A
C822       C1953   1.485       .  S
O823        C836   1.279       .  A
O823       Cd830   2.088       .  S
O824        C842   1.273       .  A
O824       Cd833   2.045       .  S
O825        C839   1.277   1_655  A
O825       Cd829   2.079       .  S
O826        C837   1.279       .  A
O826       Cd829   2.091       .  S
Zn827       O838   2.028   1_655  S
Zn827       O840   1.993       .  S
Zn827       O832   1.913       .  S
O828        C839   1.275       .  A
O828       Cd833   2.058       .  S
Cd829       O831   2.108       .  S
Cd829       O832   2.002       .  S
Cd830       O834   2.069       .  S
Cd830       O843   2.091   1_655  S
Cd830       O832   1.990       .  S
O831        C841   1.281       .  A
O832       Cd833   1.979   1_655  S
Cd833       O835   2.072       .  S
O834        C841   1.277       .  A
C836        O840   1.274       .  A
C836       C1985   1.481       .  S
C837       C3513   1.486       .  S
C839       C2985   1.474       .  S
C841       C1969   1.489       .  S
C842        O843   1.278       .  A
C842       C2001   1.469       .  S
O844        C860   1.281       .  A
O844       Zn850   2.039       .  S
C845        O861   1.278       .  A
C845        O858   1.275       .  A
C845       C1921   1.481       .  S
O846        C859   1.276       .  A
O846       Cd853   2.070       .  S
O847        C865   1.274       .  A
O847       Cd856   2.059       .  S
O848        C862   1.283       .  A
O848       Cd852   2.126   1_554  S
O849        C860   1.280       .  A
O849       Cd852   2.092       .  S
Zn850       O861   2.049   1_556  S
Zn850       O863   2.045       .  S
Zn850       O855   1.933       .  S
O851        C862   1.275       .  A
O851       Cd856   2.059       .  S
Cd852       O854   2.128       .  S
Cd852       O855   2.009       .  S
Cd853       O857   2.051       .  S
Cd853       O866   2.078   1_556  S
Cd853       O855   1.984       .  S
O854        C864   1.285       .  A
O855       Cd856   1.977   1_556  S
Cd856       O858   2.067       .  S
O857        C864   1.273       .  A
C859        O863   1.277       .  A
C859       C1937   1.490       .  S
C860       C1905   1.484       .  S
C862       C2945   1.496       .  S
C864       C2073   1.490       .  S
C865        O866   1.277       .  A
C865       C2017   1.476       .  S
O867        C883   1.277       .  A
O867       Zn873   2.025       .  S
C868        O884   1.274       .  A
C868        O881   1.276       .  A
C868       C3281   1.481       .  S
O869        C882   1.284       .  A
O869       Cd876   2.114       .  S
O870        C888   1.276       .  A
O870       Cd879   2.055       .  S
O871        C885   1.275   1_545  A
O871       Cd875   2.062       .  S
O872        C883   1.276       .  A
O872       Cd875   2.069       .  S
Zn873       O884   2.017   1_545  S
Zn873       O886   1.985       .  S
Zn873       O878   1.907       .  S
O874        C885   1.277       .  A
O874       Cd879   2.071       .  S
Cd875       O877   2.085       .  S
Cd875       O878   1.981       .  S
Cd876       O880   2.097       .  S
Cd876       O889   2.110   1_545  S
Cd876       O878   1.999       .  S
O877        C887   1.278       .  A
O878       Cd879   1.975   1_545  S
Cd879       O881   2.089       .  S
O880        C887   1.278       .  A
C882        O886   1.273       .  A
C882       C3337   1.486       .  S
C883       C1865   1.480       .  S
C885       C2225   1.478       .  S
C887       C1873   1.491       .  S
C888        O889   1.283       .  A
C888       C1897   1.480       .  S
C890        C891   1.540       .  S
C890        C896   1.538       .  S
C890        C894   1.544       .  S
C890       C1841   1.540       .  S
C891        H898   1.086       .  S
C891        C892   1.370       .  D
C892        C893   1.545       .  S
C892       C1833   1.491       .  S
C893        C897   1.540       .  S
C893        C895   1.552       .  S
C893        H899   1.107       .  S
C894        H900   1.077       .  S
C894        C895   1.373       .  D
C895       C1881   1.509       .  S
C896        H901   1.086       .  S
C896        C897   1.363       .  D
C897       C1809   1.492       .  S
C902        C903   1.541       .  S
C902        C908   1.537       .  S
C902        C906   1.547       .  S
C902       C2321   1.532       .  S
C903        H910   1.086       .  S
C903        C904   1.367       .  D
C904        C905   1.539       .  S
C904       C1793   1.480       .  S
C905        C909   1.539       .  S
C905        C907   1.543       .  S
C905        H911   1.110       .  S
C906        H912   1.081       .  S
C906        C907   1.370       .  D
C907       C1961   1.489       .  S
C908        H913   1.086       .  S
C908        C909   1.363       .  D
C909       C2313   1.488       .  S
C914        C915   1.547       .  S
C914        C920   1.534       .  S
C914        C918   1.538       .  S
C914       C3737   1.525       .  S
C915        H922   1.082       .  S
C915        C916   1.369       .  D
C916        C917   1.537       .  S
C916       C1785   1.478       .  S
C917        C921   1.536       .  S
C917        C919   1.542       .  S
C917        H923   1.110       .  S
C918        H924   1.086       .  S
C918        C919   1.368       .  D
C919       C1929   1.487       .  S
C920        H925   1.087       .  S
C920        C921   1.359       .  D
C921       C3705   1.479       .  S
C926        C927   1.542       .  S
C926        C932   1.529       .  S
C926        C930   1.537       .  S
C926       C4201   1.524       .  S
C927        H934   1.080       .  S
C927        C928   1.371       .  D
C928        C929   1.553       .  S
C928       C3673   1.501       .  S
C929        C933   1.541       .  S
C929        C931   1.544       .  S
C929        H935   1.107       .  S
C930        H936   1.086       .  S
C930        C931   1.368       .  D
C931       C1761   1.488       .  S
C932        H937   1.087       .  S
C932        C933   1.359       .  D
C933       C1993   1.485       .  S
C938        C939   1.541       .  S
C938        C944   1.531       .  S
C938        C942   1.546       .  S
C938       C3153   1.532       .  S
C939        H946   1.083       .  S
C939        C940   1.362       .  D
C940        C941   1.540       .  S
C940       C2281   1.486       .  S
C941        C945   1.540       .  S
C941        C943   1.550       .  S
C941        H947   1.108       .  S
C942        H948   1.085       .  S
C942        C943   1.377       .  D
C943       C1745   1.496       .  S
C944        H949   1.087       .  S
C944        C945   1.361       .  D
C945       C1889   1.487       .  S
C950        C951   1.537       .  S
C950        C956   1.537       .  S
C950        C954   1.536       .  S
C950       C1729   1.526       .  S
C951        H958   1.081       .  S
C951        C952   1.365       .  D
C952        C953   1.541       .  S
C952       C1705   1.483       .  S
C953        C957   1.539       .  S
C953        C955   1.550       .  S
C953        H959   1.108       .  S
C954        H960   1.085       .  S
C954        C955   1.370       .  D
C955       C1713   1.496       .  S
C956        H961   1.087       .  S
C956        C957   1.363       .  D
C957       C1945   1.484       .  S
O962        C978   1.274       .  A
O962       Zn968   2.024   1_554  S
C963        O979   1.276       .  A
C963        O976   1.278       .  A
C963       C1825   1.488       .  S
O964        C977   1.278       .  A
O964       Cd971   2.099   1_545  S
O965        C983   1.278       .  A
O965       Cd974   2.076       .  S
O966        C980   1.274       .  A
O966       Cd970   2.068   1_455  S
O967        C978   1.273       .  A
O967       Cd970   2.058   1_545  S
Zn968       O979   2.026   1_655  S
Zn968       O981   1.994       .  S
Zn968       O973   1.939   1_556  S
O969        C980   1.277       .  A
O969       Cd974   2.081   1_554  S
Cd970       O972   2.048       .  S
Cd970       O973   1.994   1_565  S
Cd971       O975   2.107   1_556  S
Cd971       O984   2.096       .  S
Cd971       O973   2.027   1_566  S
O972        C982   1.272       .  A
O973       Cd974   2.001   1_644  S
Cd974       O976   2.103   1_565  S
O975        C982   1.279       .  A
C977        O981   1.273       .  A
C977       C1721   1.481       .  S
C978       C1777   1.475       .  S
C980       C1801   1.480       .  S
C982       C1769   1.481       .  S
C983        O984   1.279   1_455  A
C983       C1753   1.489       .  S
O985       C1001   1.276       .  A
O985       Zn991   2.003       .  S
C986       O1002   1.274       .  A
C986        O999   1.275       .  A
C986       C1665   1.475       .  S
O987       C1000   1.278       .  A
O987       Cd994   2.087       .  S
O988       C1006   1.274       .  A
O988       Cd997   2.061       .  S
O989       C1003   1.281       .  A
O989       Cd993   2.104   1_554  S
O990       C1001   1.283       .  A
O990       Cd993   2.114       .  S
Zn991      O1002   2.012   1_556  S
Zn991      O1004   2.017       .  S
Zn991       O996   1.914   1_556  S
O992       C1003   1.275       .  A
O992       Cd997   2.053       .  S
Cd993       O995   2.128       .  S
Cd993       O996   2.009   1_556  S
Cd994       O998   2.034       .  S
Cd994      O1007   2.091   1_556  S
Cd994       O996   1.979   1_556  S
O995       C1005   1.284       .  A
O996       Cd997   1.973       .  S
Cd997       O999   2.069       .  S
O998       C1005   1.273       .  A
C1000      O1004   1.274       .  A
C1000      C1681   1.487       .  S
C1001      C1849   1.491       .  S
C1003      C2129   1.487       .  S
C1005      C2841   1.480       .  S
C1006      O1007   1.278       .  A
C1006      C2689   1.481       .  S
O1008      C1024   1.278       .  A
O1008     Zn1014   2.023       .  S
C1009      O1025   1.275       .  A
C1009      O1022   1.277       .  A
C1009      C3057   1.483       .  S
O1010      C1023   1.279       .  A
O1010     Cd1017   2.081       .  S
O1011      C1029   1.273       .  A
O1011     Cd1020   2.051       .  S
O1012      C1026   1.277       .  A
O1012     Cd1016   2.071       .  S
O1013      C1024   1.278       .  A
O1013     Cd1016   2.084       .  S
Zn1014     O1025   2.023       .  S
Zn1014     O1027   2.012       .  S
Zn1014     O1019   1.912       .  S
O1015      C1026   1.276       .  A
O1015     Cd1020   2.059       .  S
Cd1016     O1018   2.105       .  S
Cd1016     O1019   1.993       .  S
Cd1017     O1021   2.074       .  S
Cd1017     O1030   2.095       .  S
Cd1017     O1019   1.984       .  S
O1018      C1028   1.281       .  A
O1019     Cd1020   1.979       .  S
Cd1020     O1022   2.089       .  S
O1021      C1028   1.277       .  A
C1023      O1027   1.276       .  A
C1023      C3001   1.483       .  S
C1024      C2601   1.487       .  S
C1026      C2761   1.478       .  S
C1028      C1641   1.491       .  S
C1029      O1030   1.279       .  A
C1029      C1649   1.470       .  S
O1031      C1047   1.276       .  A
O1031     Zn1037   2.045   1_655  S
C1032      O1048   1.279       .  A
C1032      O1045   1.275       .  A
C1032      C3369   1.475       .  S
O1033      C1046   1.280       .  A
O1033     Cd1040   2.092       .  S
O1034      C1052   1.278       .  A
O1034     Cd1043   2.098       .  S
O1035      C1049   1.273       .  A
O1035     Cd1039   2.056       .  S
O1036      C1047   1.271       .  A
O1036     Cd1039   2.044       .  S
Zn1037     O1048   2.023       .  S
Zn1037     O1050   2.022       .  S
Zn1037     O1042   1.928   1_455  S
O1038      C1049   1.278       .  A
O1038     Cd1043   2.089   1_655  S
Cd1039     O1041   2.034       .  S
Cd1039     O1042   1.975       .  S
Cd1040     O1044   2.092   1_455  S
Cd1040     O1053   2.047       .  S
Cd1040     O1042   1.987   1_455  S
O1041      C1051   1.272       .  A
O1042     Cd1043   2.001   1_655  S
Cd1043     O1045   2.064       .  S
O1044      C1051   1.278       .  A
C1046      O1050   1.275       .  A
C1046      C1817   1.489       .  S
C1047      C1697   1.477       .  S
C1049      C3025   1.482       .  S
C1051      C1617   1.469       .  S
C1052      O1053   1.273       .  A
C1052      C1601   1.479       .  S
C1054      C1055   1.545       .  S
C1054      C1060   1.527       .  S
C1054      C1058   1.545       .  S
C1054      C1913   1.532       .  S
C1055      H1062   1.083       .  S
C1055      C1056   1.371       .  D
C1056      C1057   1.546       .  S
C1056      C1585   1.502       .  S
C1057      C1061   1.534       .  S
C1057      C1059   1.552       .  S
C1057      H1063   1.106       .  S
C1058      H1064   1.085       .  S
C1058      C1059   1.375       .  D
C1059      C1633   1.501       .  S
C1060      H1065   1.087       .  S
C1060      C1061   1.359       .  D
C1061      C1625   1.480       .  S
C1066      C1067   1.532       .  S
C1066      C1072   1.534       .  S
C1066      C1070   1.545       .  S
C1066      C2641   1.523       .  S
C1067      H1074   1.086       .  S
C1067      C1068   1.365       .  D
C1068      C1069   1.550       .  S
C1068      C1609   1.486       .  S
C1069      C1073   1.540       .  S
C1069      C1071   1.537       .  S
C1069      H1075   1.109       .  S
C1070      H1076   1.082       .  S
C1070      C1071   1.366       .  D
C1071      C1577   1.476       .  S
C1072      H1077   1.086       .  S
C1072      C1073   1.364       .  D
C1073      C1689   1.494       .  S
C1078      C1079   1.542       .  S
C1078      C1084   1.537       .  S
C1078      C1082   1.543       .  S
C1078      C3145   1.528       .  S
C1079      H1086   1.082       .  S
C1079      C1080   1.367       .  D
C1080      C1081   1.545       .  S
C1080      C4249   1.488       .  S
C1081      C1085   1.534       .  S
C1081      C1083   1.540       .  S
C1081      H1087   1.110       .  S
C1082      H1088   1.086       .  S
C1082      C1083   1.370       .  D
C1083      C1561   1.485       .  S
C1084      H1089   1.087       .  S
C1084      C1085   1.361       .  D
C1085      C1657   1.485       .  S
C1090      C1091   1.536       .  S
C1090      C1096   1.537       .  S
C1090      C1094   1.539       .  S
C1090      C3713   1.533       .  S
C1091      H1098   1.085       .  S
C1091      C1092   1.374       .  D
C1092      C1093   1.548       .  S
C1092      C1545   1.496       .  S
C1093      C1097   1.539       .  S
C1093      C1095   1.540       .  S
C1093      H1099   1.109       .  S
C1094      H1100   1.082       .  S
C1094      C1095   1.363       .  D
C1095      C1673   1.483       .  S
C1096      H1101   1.086       .  S
C1096      C1097   1.365       .  D
C1097      C4185   1.482       .  S
C1102      C1103   1.540       .  S
C1102      C1108   1.529       .  S
C1102      C1106   1.549       .  S
C1102      C3817   1.529       .  S
C1103      H1110   1.086       .  S
C1103      C1104   1.366       .  D
C1104      C1105   1.544       .  S
C1104      C1521   1.493       .  S
C1105      C1109   1.531       .  S
C1105      C1107   1.549       .  S
C1105      H1111   1.107       .  S
C1106      H1112   1.083       .  S
C1106      C1107   1.378       .  D
C1107      C1977   1.497       .  S
C1108      H1113   1.087       .  S
C1108      C1109   1.358       .  D
C1109      C4281   1.480       .  S
C1114      C1115   1.541       .  S
C1114      C1120   1.528       .  S
C1114      C1118   1.540       .  S
C1114      C2241   1.525       .  S
C1115      H1122   1.085       .  S
C1115      C1116   1.371       .  D
C1116      C1117   1.544       .  S
C1116      C4129   1.485       .  S
C1117      C1121   1.541       .  S
C1117      C1119   1.535       .  S
C1117      H1123   1.110       .  S
C1118      H1124   1.086       .  S
C1118      C1119   1.363       .  D
C1119      C1513   1.472       .  S
C1120      H1125   1.086       .  S
C1120      C1121   1.365       .  D
C1121      C2009   1.489       .  S
O1126      C1142   1.273       .  A
O1126     Zn1132   2.004   1_454  S
C1127      O1143   1.274       .  A
C1127      O1140   1.274       .  A
C1127      C1553   1.479       .  S
O1128      C1141   1.280       .  A
O1128     Cd1135   2.110       .  S
O1129      C1147   1.274       .  A
O1129     Cd1138   2.049       .  S
O1130      C1144   1.275       .  A
O1130     Cd1134   2.070       .  S
O1131      C1142   1.276       .  A
O1131     Cd1134   2.077   1_554  S
Zn1132     O1143   2.024       .  S
Zn1132     O1145   1.990   1_556  S
Zn1132     O1137   1.929       .  S
O1133      C1144   1.274       .  A
O1133     Cd1138   2.069   1_455  S
Cd1134     O1136   2.047   1_556  S
Cd1134     O1137   1.995   1_455  S
Cd1135     O1139   2.111   1_655  S
Cd1135     O1148   2.112   1_554  S
Cd1135     O1137   2.027   1_554  S
O1136      C1146   1.272       .  A
O1137     Cd1138   1.989       .  S
Cd1138     O1140   2.072       .  S
O1139      C1146   1.281       .  A
C1141      O1145   1.273       .  A
C1141      C1529   1.483       .  S
C1142      C1505   1.481       .  S
C1144      C1569   1.474       .  S
C1146      C1537   1.485       .  S
C1147      O1148   1.281       .  A
C1147      C1593   1.489       .  S
O1149      C1165   1.273       .  A
O1149     Zn1155   2.014       .  S
C1150      O1166   1.273       .  A
C1150      O1163   1.280       .  A
C1150      C2169   1.485       .  S
O1151      C1164   1.281       .  A
O1151     Cd1158   2.104       .  S
O1152      C1170   1.283       .  A
O1152     Cd1161   2.126       .  S
O1153      C1167   1.278       .  A
O1153     Cd1157   2.074       .  S
O1154      C1165   1.274       .  A
O1154     Cd1157   2.077       .  S
Zn1155     O1166   1.991       .  S
Zn1155     O1168   1.989       .  S
Zn1155     O1160   1.910       .  S
O1156      C1167   1.280       .  A
O1156     Cd1161   2.087       .  S
Cd1157     O1159   2.046       .  S
Cd1157     O1160   1.975       .  S
Cd1158     O1162   2.107       .  S
Cd1158     O1171   2.043       .  S
Cd1158     O1160   1.992       .  S
O1159      C1169   1.274       .  A
O1160     Cd1161   2.008       .  S
Cd1161     O1163   2.101       .  S
O1162      C1169   1.280       .  A
C1164      O1168   1.273       .  A
C1164      C1489   1.486       .  S
C1165      C1473   1.470       .  S
C1167      C2921   1.487       .  S
C1169      C2617   1.480       .  S
C1170      O1171   1.273       .  A
C1170      C2505   1.486       .  S
O1172      C1188   1.274       .  A
O1172     Zn1178   2.005       .  S
C1173      O1189   1.274       .  A
C1173      O1186   1.278       .  A
C1173      C1449   1.478       .  S
O1174      C1187   1.280       .  A
O1174     Cd1181   2.094       .  S
O1175      C1193   1.275       .  A
O1175     Cd1184   2.064       .  S
O1176      C1190   1.276       .  A
O1176     Cd1180   2.066       .  S
O1177      C1188   1.279       .  A
O1177     Cd1180   2.095       .  S
Zn1178     O1189   2.003       .  S
Zn1178     O1191   2.019       .  S
Zn1178     O1183   1.916       .  S
O1179      C1190   1.281       .  A
O1179     Cd1184   2.098       .  S
Cd1180     O1182   2.094       .  S
Cd1180     O1183   1.994       .  S
Cd1181     O1185   2.069       .  S
Cd1181     O1194   2.095       .  S
Cd1181     O1183   1.991       .  S
O1182      C1192   1.280       .  A
O1183     Cd1184   1.990       .  S
Cd1184     O1186   2.103       .  S
O1185      C1192   1.276       .  A
C1187      O1191   1.275       .  A
C1187      C1457   1.489       .  S
C1188      C2097   1.488       .  S
C1190      C2889   1.487       .  S
C1192      C2569   1.487       .  S
C1193      O1194   1.280       .  A
C1193      C2457   1.480       .  S
O1195      C1211   1.275       .  A
O1195     Zn1201   2.025   1_565  S
C1196      O1212   1.275       .  A
C1196      O1209   1.283       .  A
C1196      C1737   1.480       .  S
O1197      C1210   1.278       .  A
O1197     Cd1204   2.093       .  S
O1198      C1216   1.286       .  A
O1198     Cd1207   2.143       .  S
O1199      C1213   1.278       .  A
O1199     Cd1203   2.077       .  S
O1200      C1211   1.277       .  A
O1200     Cd1203   2.083       .  S
Zn1201     O1212   1.979       .  S
Zn1201     O1214   2.013       .  S
Zn1201     O1206   1.907       .  S
O1202      C1213   1.280       .  A
O1202     Cd1207   2.105   1_565  S
Cd1203     O1205   2.053       .  S
Cd1203     O1206   1.969   1_565  S
Cd1204     O1208   2.083   1_545  S
Cd1204     O1217   2.046       .  S
Cd1204     O1206   1.978       .  S
O1205      C1215   1.275       .  A
O1206     Cd1207   2.009       .  S
Cd1207     O1209   2.104       .  S
O1208      C1215   1.278       .  A
C1210      O1214   1.273       .  A
C1210      C2057   1.488       .  S
C1211      C2185   1.489       .  S
C1213      C3449   1.494       .  S
C1215      C1433   1.473       .  S
C1216      O1217   1.274       .  A
C1216      C1409   1.496       .  S
C1218      C1219   1.540       .  S
C1218      C1224   1.531       .  S
C1218      C1222   1.543       .  S
C1218      C1857   1.525       .  S
C1219      H1226   1.086       .  S
C1219      C1220   1.365       .  D
C1220      C1221   1.536       .  S
C1220      C1393   1.472       .  S
C1221      C1225   1.540       .  S
C1221      C1223   1.541       .  S
C1221      H1227   1.110       .  S
C1222      H1228   1.084       .  S
C1222      C1223   1.368       .  D
C1223      C1441   1.484       .  S
C1224      H1229   1.086       .  S
C1224      C1225   1.362       .  D
C1225      C3977   1.481       .  S
C1230      C1231   1.549       .  S
C1230      C1236   1.532       .  S
C1230      C1234   1.538       .  S
C1230      C2409   1.526       .  S
C1231      H1238   1.083       .  S
C1231      C1232   1.371       .  D
C1232      C1233   1.535       .  S
C1232      C1377   1.476       .  S
C1233      C1237   1.537       .  S
C1233      C1235   1.539       .  S
C1233      H1239   1.111       .  S
C1234      H1240   1.086       .  S
C1234      C1235   1.364       .  D
C1235      C3561   1.485       .  S
C1236      H1241   1.087       .  S
C1236      C1237   1.362       .  D
C1237      C1425   1.478       .  S
C1242      C1243   1.542       .  S
C1242      C1248   1.533       .  S
C1242      C1246   1.539       .  S
C1242      C3209   1.536       .  S
C1243      H1250   1.081       .  S
C1243      C1244   1.373       .  D
C1244      C1245   1.554       .  S
C1244      C1417   1.503       .  S
C1245      C1249   1.543       .  S
C1245      C1247   1.550       .  S
C1245      H1251   1.108       .  S
C1246      H1252   1.085       .  S
C1246      C1247   1.370       .  D
C1247      C1361   1.499       .  S
C1248      H1253   1.087       .  S
C1248      C1249   1.363       .  D
C1249      C1465   1.490       .  S
C1254      C1255   1.538       .  S
C1254      C1260   1.531       .  S
C1254      C1258   1.547       .  S
C1254      C4297   1.527       .  S
C1255      H1262   1.086       .  S
C1255      C1256   1.363       .  D
C1256      C1257   1.539       .  S
C1256      C1345   1.483       .  S
C1257      C1261   1.540       .  S
C1257      C1259   1.556       .  S
C1257      H1263   1.106       .  S
C1258      H1264   1.080       .  S
C1258      C1259   1.378       .  D
C1259      C2361   1.509       .  S
C1260      H1265   1.087       .  S
C1260      C1261   1.357       .  D
C1261      C1497   1.484       .  S
C1266      C1267   1.538       .  S
C1266      C1272   1.535       .  S
C1266      C1270   1.549       .  S
C1266      C3625   1.537       .  S
C1267      H1274   1.080       .  S
C1267      C1268   1.362       .  D
C1268      C1269   1.542       .  S
C1268      C1481   1.489       .  S
C1269      C1273   1.542       .  S
C1269      C1271   1.549       .  S
C1269      H1275   1.106       .  S
C1270      H1276   1.085       .  S
C1270      C1271   1.378       .  D
C1271      C1329   1.503       .  S
C1272      H1277   1.086       .  S
C1272      C1273   1.362       .  D
C1273      C3609   1.492       .  S
C1278      C1279   1.544       .  S
C1278      C1284   1.534       .  S
C1278      C1282   1.533       .  S
C1278      C4001   1.525       .  S
C1279      H1286   1.081       .  S
C1279      C1280   1.367       .  D
C1280      C1281   1.546       .  S
C1280      C3937   1.489       .  S
C1281      C1285   1.543       .  S
C1281      C1283   1.546       .  S
C1281      H1287   1.111       .  S
C1282      H1288   1.086       .  S
C1282      C1283   1.365       .  D
C1283      C1321   1.483       .  S
C1284      H1289   1.087       .  S
C1284      C1285   1.362       .  D
C1285      C2393   1.482       .  S
O1290      C1306   1.280       .  A
O1290     Zn1296   2.056       .  S
C1291      O1307   1.278       .  A
C1291      O1304   1.272       .  A
C1291      C1353   1.486       .  S
O1292      C1305   1.281   1_545  A
O1292     Cd1299   2.108       .  S
O1293      C1311   1.271       .  A
O1293     Cd1302   2.030       .  S
O1294      C1308   1.275       .  A
O1294     Cd1298   2.085       .  S
O1295      C1306   1.276       .  A
O1295     Cd1298   2.058   1_565  S
Zn1296     O1307   2.051       .  S
Zn1296     O1309   2.035       .  S
Zn1296     O1301   1.956   1_565  S
O1297      C1308   1.273       .  A
O1297     Cd1302   2.063       .  S
Cd1298     O1300   2.051       .  S
Cd1298     O1301   1.991       .  S
Cd1299     O1303   2.126       .  S
Cd1299     O1312   2.124       .  S
Cd1299     O1301   2.029       .  S
O1300      C1310   1.273       .  A
O1301     Cd1302   1.988       .  S
Cd1302     O1304   2.057   1_545  S
O1303      C1310   1.282       .  A
C1305      O1309   1.278       .  A
C1305      C1337   1.495       .  S
C1306      C1385   1.488       .  S
C1308      C1401   1.487       .  S
C1310      C1369   1.488       .  S
C1311      O1312   1.283       .  A
C1311      C1313   1.478       .  S
C1313      C1314   1.407       .  A
C1313      C1318   1.404       .  A
C1314      C1315   1.394       .  A
C1314      H1323   1.084       .  S
C1315      C1316   1.398       .  A
C1315      H1324   1.084       .  S
C1316      C1322   1.405       .  A
C1316      C1317   1.417       .  A
C1317      C1319   1.402       .  A
C1317      C1318   1.410       .  A
C1318      H1325   1.084       .  S
C1319      C1320   1.399       .  A
C1319      H1326   1.084       .  S
C1320      C1321   1.406       .  A
C1320      H1327   1.083       .  S
C1321      C1322   1.401       .  A
C1322      H1328   1.085       .  S
C1329      C1330   1.408       .  A
C1329      C1334   1.414       .  A
C1330      C1331   1.396       .  A
C1330      H1339   1.081       .  S
C1331      C1332   1.399       .  A
C1331      H1340   1.084       .  S
C1332      C1338   1.407       .  A
C1332      C1333   1.413       .  A
C1333      C1335   1.406       .  A
C1333      C1334   1.416       .  A
C1334      H1341   1.083       .  S
C1335      C1336   1.406   1_565  A
C1335      H1342   1.083   1_565  S
C1336      C1337   1.408   1_545  A
C1336      H1343   1.083       .  S
C1337      C1338   1.409       .  A
C1338      H1344   1.084       .  S
C1345      C1346   1.404       .  A
C1345      C1350   1.405       .  A
C1346      C1347   1.399       .  A
C1346      H1355   1.083       .  S
C1347      C1348   1.404       .  A
C1347      H1356   1.083       .  S
C1348      C1354   1.407       .  A
C1348      C1349   1.414       .  A
C1349      C1351   1.403       .  A
C1349      C1350   1.407       .  A
C1350      H1357   1.084       .  S
C1351      C1352   1.400       .  A
C1351      H1358   1.083       .  S
C1352      C1353   1.406       .  A
C1352      H1359   1.083       .  S
C1353      C1354   1.410       .  A
C1354      H1360   1.084       .  S
C1361      C1362   1.410       .  A
C1361      C1366   1.407       .  A
C1362      C1363   1.402       .  A
C1362      H1371   1.082       .  S
C1363      C1364   1.403       .  A
C1363      H1372   1.083       .  S
C1364      C1370   1.415       .  A
C1364      C1365   1.415       .  A
C1365      C1367   1.400       .  A
C1365      C1366   1.408       .  A
C1366      H1373   1.082       .  S
C1367      C1368   1.396       .  A
C1367      H1374   1.083       .  S
C1368      C1369   1.408       .  A
C1368      H1375   1.084       .  S
C1369      C1370   1.409       .  A
C1370      H1376   1.083       .  S
C1377      C1378   1.401       .  A
C1377      C1382   1.401       .  A
C1378      C1379   1.401       .  A
C1378      H1387   1.084       .  S
C1379      C1380   1.405       .  A
C1379      H1388   1.079       .  S
C1380      C1386   1.410       .  A
C1380      C1381   1.414       .  A
C1381      C1383   1.400       .  A
C1381      C1382   1.405       .  A
C1382      H1389   1.081       .  S
C1383      C1384   1.395       .  A
C1383      H1390   1.080       .  S
C1384      C1385   1.408       .  A
C1384      H1391   1.084       .  S
C1385      C1386   1.410       .  A
C1386      H1392   1.080       .  S
C1393      C1394   1.401       .  A
C1393      C1398   1.400       .  A
C1394      C1395   1.400       .  A
C1394      H1403   1.083       .  S
C1395      C1396   1.405       .  A
C1395      H1404   1.084       .  S
C1396      C1402   1.408       .  A
C1396      C1397   1.415       .  A
C1397      C1399   1.400       .  A
C1397      C1398   1.403       .  A
C1398      H1405   1.085       .  S
C1399      C1400   1.396       .  A
C1399      H1406   1.084       .  S
C1400      C1401   1.408       .  A
C1400      H1407   1.083       .  S
C1401      C1402   1.409       .  A
C1402      H1408   1.084       .  S
C1409      C1410   1.411       .  A
C1409      C1414   1.411       .  A
C1410      C1411   1.395       .  A
C1410      H1419   1.083       .  S
C1411      C1412   1.397       .  A
C1411      H1420   1.084       .  S
C1412      C1418   1.409       .  A
C1412      C1413   1.415       .  A
C1413      C1415   1.403       .  A
C1413      C1414   1.418       .  A
C1414      H1421   1.084       .  S
C1415      C1416   1.404       .  A
C1415      H1422   1.084       .  S
C1416      C1417   1.411       .  A
C1416      H1423   1.082       .  S
C1417      C1418   1.406       .  A
C1418      H1424   1.082       .  S
C1425      C1426   1.401       .  A
C1425      C1430   1.407       .  A
C1426      C1427   1.396       .  A
C1426      H1435   1.083       .  S
C1427      C1428   1.403       .  A
C1427      H1436   1.084       .  S
C1428      C1434   1.399       .  A
C1428      C1429   1.413       .  A
C1429      C1431   1.404       .  A
C1429      C1430   1.402       .  A
C1430      H1437   1.084       .  S
C1431      C1432   1.399       .  A
C1431      H1438   1.084       .  S
C1432      C1433   1.403       .  A
C1432      H1439   1.082       .  S
C1433      C1434   1.405       .  A
C1434      H1440   1.085       .  S
C1441      C1442   1.404       .  A
C1441      C1446   1.402       .  A
C1442      C1443   1.404       .  A
C1442      H1451   1.080       .  S
C1443      C1444   1.406       .  A
C1443      H1452   1.084       .  S
C1444      C1450   1.412       .  A
C1444      C1445   1.415       .  A
C1445      C1447   1.399       .  A
C1445      C1446   1.402       .  A
C1446      H1453   1.085       .  S
C1447      C1448   1.393       .  A
C1447      H1454   1.084       .  S
C1448      C1449   1.404       .  A
C1448      H1455   1.083       .  S
C1449      C1450   1.409       .  A
C1450      H1456   1.084       .  S
C1457      C1458   1.406       .  A
C1457      C1462   1.413       .  A
C1458      C1459   1.397       .  A
C1458      H1467   1.083       .  S
C1459      C1460   1.402       .  A
C1459      H1468   1.084       .  S
C1460      C1466   1.403       .  A
C1460      C1461   1.412       .  A
C1461      C1463   1.407       .  A
C1461      C1462   1.409       .  A
C1462      H1469   1.084       .  S
C1463      C1464   1.404       .  A
C1463      H1470   1.084       .  S
C1464      C1465   1.403       .  A
C1464      H1471   1.081       .  S
C1465      C1466   1.408       .  A
C1466      H1472   1.085       .  S
C1473      C1474   1.401       .  A
C1473      C1478   1.406       .  A
C1474      C1475   1.396       .  A
C1474      H1483   1.083       .  S
C1475      C1476   1.403       .  A
C1475      H1484   1.084       .  S
C1476      C1482   1.401       .  A
C1476      C1477   1.413       .  A
C1477      C1479   1.405       .  A
C1477      C1478   1.407       .  A
C1478      H1485   1.084       .  S
C1479      C1480   1.402       .  A
C1479      H1486   1.083       .  S
C1480      C1481   1.404       .  A
C1480      H1487   1.081       .  S
C1481      C1482   1.408       .  A
C1482      H1488   1.084       .  S
C1489      C1490   1.405       .  A
C1489      C1494   1.410       .  A
C1490      C1491   1.401       .  A
C1490      H1499   1.083       .  S
C1491      C1492   1.405       .  A
C1491      H1500   1.083       .  S
C1492      C1498   1.405       .  A
C1492      C1493   1.411       .  A
C1493      C1495   1.403       .  A
C1493      C1494   1.402       .  A
C1494      H1501   1.084       .  S
C1495      C1496   1.397       .  A
C1495      H1502   1.083       .  S
C1496      C1497   1.401       .  A
C1496      H1503   1.081       .  S
C1497      C1498   1.410       .  A
C1498      H1504   1.084       .  S
C1505      C1506   1.408       .  A
C1505      C1510   1.407       .  A
C1506      C1507   1.395       .  A
C1506      H1515   1.083       .  S
C1507      C1508   1.400       .  A
C1507      H1516   1.084       .  S
C1508      C1514   1.401       .  A
C1508      C1509   1.415       .  A
C1509      C1511   1.403       .  A
C1509      C1510   1.404       .  A
C1510      H1517   1.084       .  S
C1511      C1512   1.398       .  A
C1511      H1518   1.084       .  S
C1512      C1513   1.402       .  A
C1512      H1519   1.083       .  S
C1513      C1514   1.400       .  A
C1514      H1520   1.083       .  S
C1521      C1522   1.409       .  A
C1521      C1526   1.405       .  A
C1522      C1523   1.401       .  A
C1522      H1531   1.082       .  S
C1523      C1524   1.403       .  A
C1523      H1532   1.083       .  S
C1524      C1530   1.411       .  A
C1524      C1525   1.415       .  A
C1525      C1527   1.399       .  A
C1525      C1526   1.404       .  A
C1526      H1533   1.083       .  S
C1527      C1528   1.394       .  A
C1527      H1534   1.084       .  S
C1528      C1529   1.407       .  A
C1528      H1535   1.083       .  S
C1529      C1530   1.407       .  A
C1530      H1536   1.084       .  S
C1537      C1538   1.409       .  A
C1537      C1542   1.406       .  A
C1538      C1539   1.396       .  A
C1538      H1547   1.083       .  S
C1539      C1540   1.400       .  A
C1539      H1548   1.084       .  S
C1540      C1546   1.406       .  A
C1540      C1541   1.414       .  A
C1541      C1543   1.401       .  A
C1541      C1542   1.409       .  A
C1542      H1549   1.084       .  S
C1543      C1544   1.399       .  A
C1543      H1550   1.083       .  S
C1544      C1545   1.409       .  A
C1544      H1551   1.082       .  S
C1545      C1546   1.407       .  A
C1546      H1552   1.080       .  S
C1553      C1554   1.405       .  A
C1553      C1558   1.404       .  A
C1554      C1555   1.400       .  A
C1554      H1563   1.083       .  S
C1555      C1556   1.403       .  A
C1555      H1564   1.083       .  S
C1556      C1562   1.408       .  A
C1556      C1557   1.415       .  A
C1557      C1559   1.400       .  A
C1557      C1558   1.403       .  A
C1558      H1565   1.085       .  S
C1559      C1560   1.395       .  A
C1559      H1566   1.084       .  S
C1560      C1561   1.405       .  A
C1560      H1567   1.083       .  S
C1561      C1562   1.407       .  A
C1562      H1568   1.084       .  S
C1569      C1570   1.404       .  A
C1569      C1574   1.404       .  A
C1570      C1571   1.399       .  A
C1570      H1579   1.083       .  S
C1571      C1572   1.403       .  A
C1571      H1580   1.083       .  S
C1572      C1578   1.405       .  A
C1572      C1573   1.415       .  A
C1573      C1575   1.402       .  A
C1573      C1574   1.402       .  A
C1574      H1581   1.084       .  S
C1575      C1576   1.396       .  A
C1575      H1582   1.083       .  S
C1576      C1577   1.403       .  A
C1576      H1583   1.084       .  S
C1577      C1578   1.404       .  A
C1578      H1584   1.084       .  S
C1585      C1586   1.412       .  A
C1585      C1590   1.406       .  A
C1586      C1587   1.402       .  A
C1586      H1595   1.081       .  S
C1587      C1588   1.402       .  A
C1587      H1596   1.083       .  S
C1588      C1594   1.412       .  A
C1588      C1589   1.412       .  A
C1589      C1591   1.398       .  A
C1589      C1590   1.403       .  A
C1590      H1597   1.076       .  S
C1591      C1592   1.393       .  A
C1591      H1598   1.084       .  S
C1592      C1593   1.409       .  A
C1592      H1599   1.083       .  S
C1593      C1594   1.410       .  A
C1594      H1600   1.084       .  S
C1601      C1602   1.407       .  A
C1601      C1606   1.407       .  A
C1602      C1603   1.392       .  A
C1602      H1611   1.083       .  S
C1603      C1604   1.397       .  A
C1603      H1612   1.084       .  S
C1604      C1610   1.402       .  A
C1604      C1605   1.416       .  A
C1605      C1607   1.403       .  A
C1605      C1606   1.410       .  A
C1606      H1613   1.084       .  S
C1607      C1608   1.400       .  A
C1607      H1614   1.084       .  S
C1608      C1609   1.409       .  A
C1608      H1615   1.083       .  S
C1609      C1610   1.400       .  A
C1610      H1616   1.083       .  S
C1617      C1618   1.404       .  A
C1617      C1622   1.405       .  A
C1618      C1619   1.390       .  A
C1618      H1627   1.083       .  S
C1619      C1620   1.398       .  A
C1619      H1628   1.084       .  S
C1620      C1626   1.396       .  A
C1620      C1621   1.415       .  A
C1621      C1623   1.405       .  A
C1621      C1622   1.407       .  A
C1622      H1629   1.085       .  S
C1623      C1624   1.401       .  A
C1623      H1630   1.084       .  S
C1624      C1625   1.404       .  A
C1624      H1631   1.083       .  S
C1625      C1626   1.402       .  A
C1626      H1632   1.085       .  S
C1633      C1634   1.406       .  A
C1633      C1638   1.414       .  A
C1634      C1635   1.396       .  A
C1634      H1643   1.076       .  S
C1635      C1636   1.399       .  A
C1635      H1644   1.084       .  S
C1636      C1642   1.405       .  A
C1636      C1637   1.413       .  A
C1637      C1639   1.406       .  A
C1637      C1638   1.414       .  A
C1638      H1645   1.083       .  S
C1639      C1640   1.405       .  A
C1639      H1646   1.083       .  S
C1640      C1641   1.407       .  A
C1640      H1647   1.083       .  S
C1641      C1642   1.408       .  A
C1642      H1648   1.084       .  S
C1649      C1650   1.405       .  A
C1649      C1654   1.401       .  A
C1650      C1651   1.396       .  A
C1650      H1659   1.083       .  S
C1651      C1652   1.401       .  A
C1651      H1660   1.084       .  S
C1652      C1658   1.405       .  A
C1652      C1653   1.416       .  A
C1653      C1655   1.399       .  A
C1653      C1654   1.405       .  A
C1654      H1661   1.085       .  S
C1655      C1656   1.395       .  A
C1655      H1662   1.084       .  S
C1656      C1657   1.408       .  A
C1656      H1663   1.083       .  S
C1657      C1658   1.403       .  A
C1658      H1664   1.082       .  S
C1665      C1666   1.403       .  A
C1665      C1670   1.407       .  A
C1666      C1667   1.396       .  A
C1666      H1675   1.083       .  S
C1667      C1668   1.403       .  A
C1667      H1676   1.084       .  S
C1668      C1674   1.400       .  A
C1668      C1669   1.413       .  A
C1669      C1671   1.404       .  A
C1669      C1670   1.403       .  A
C1670      H1677   1.084       .  S
C1671      C1672   1.400       .  A
C1671      H1678   1.084       .  S
C1672      C1673   1.402       .  A
C1672      H1679   1.081       .  S
C1673      C1674   1.407       .  A
C1674      H1680   1.084       .  S
C1681      C1682   1.406       .  A
C1681      C1686   1.412       .  A
C1682      C1683   1.396       .  A
C1682      H1691   1.083       .  S
C1683      C1684   1.401       .  A
C1683      H1692   1.084       .  S
C1684      C1690   1.401       .  A
C1684      C1685   1.411       .  A
C1685      C1687   1.405       .  A
C1685      C1686   1.408       .  A
C1686      H1693   1.084       .  S
C1687      C1688   1.403       .  A
C1687      H1694   1.083       .  S
C1688      C1689   1.405       .  A
C1688      H1695   1.081       .  S
C1689      C1690   1.410       .  A
C1690      H1696   1.083       .  S
C1697      C1698   1.405       .  A
C1697      C1702   1.408       .  A
C1698      C1699   1.394       .  A
C1698      H1707   1.083       .  S
C1699      C1700   1.400       .  A
C1699      H1708   1.084       .  S
C1700      C1706   1.400       .  A
C1700      C1701   1.414       .  A
C1701      C1703   1.405       .  A
C1701      C1702   1.408       .  A
C1702      H1709   1.084       .  S
C1703      C1704   1.402       .  A
C1703      H1710   1.083       .  S
C1704      C1705   1.404       .  A
C1704      H1711   1.083       .  S
C1705      C1706   1.404       .  A
C1706      H1712   1.084       .  S
C1713      C1714   1.411       .  A
C1713      C1718   1.406       .  A
C1714      C1715   1.400       .  A
C1714      H1723   1.081       .  S
C1715      C1716   1.401       .  A
C1715      H1724   1.084       .  S
C1716      C1722   1.410       .  A
C1716      C1717   1.414       .  A
C1717      C1719   1.399       .  A
C1717      C1718   1.403       .  A
C1718      H1725   1.082       .  S
C1719      C1720   1.393       .  A
C1719      H1726   1.084       .  S
C1720      C1721   1.407       .  A
C1720      H1727   1.083       .  S
C1721      C1722   1.407       .  A
C1722      H1728   1.084       .  S
C1729      C1730   1.413       .  A
C1729      C1734   1.405       .  A
C1730      C1731   1.401       .  A
C1730      H1739   1.077       .  S
C1731      C1732   1.401       .  A
C1731      H1740   1.084       .  S
C1732      C1738   1.408       .  A
C1732      C1733   1.413       .  A
C1733      C1735   1.396       .  A
C1733      C1734   1.396       .  A
C1734      H1741   1.085       .  S
C1735      C1736   1.389       .  A
C1735      H1742   1.084       .  S
C1736      C1737   1.408       .  A
C1736      H1743   1.083       .  S
C1737      C1738   1.407       .  A
C1738      H1744   1.084       .  S
C1745      C1746   1.407       .  A
C1745      C1750   1.412       .  A
C1746      C1747   1.395       .  A
C1746      H1755   1.081       .  S
C1747      C1748   1.399       .  A
C1747      H1756   1.084       .  S
C1748      C1754   1.403       .  A
C1748      C1749   1.412       .  A
C1749      C1751   1.405       .  A
C1749      C1750   1.411       .  A
C1750      H1757   1.083       .  S
C1751      C1752   1.404       .  A
C1751      H1758   1.084       .  S
C1752      C1753   1.408       .  A
C1752      H1759   1.083   1_455  S
C1753      C1754   1.407       .  A
C1754      H1760   1.084       .  S
C1761      C1762   1.407       .  A
C1761      C1766   1.405       .  A
C1762      C1763   1.399       .  A
C1762      H1771   1.083       .  S
C1763      C1764   1.402       .  A
C1763      H1772   1.084       .  S
C1764      C1770   1.408       .  A
C1764      C1765   1.415       .  A
C1765      C1767   1.400       .  A
C1765      C1766   1.404       .  A
C1766      H1773   1.084       .  S
C1767      C1768   1.395       .  A
C1767      H1774   1.084       .  S
C1768      C1769   1.407       .  A
C1768      H1775   1.083       .  S
C1769      C1770   1.406       .  A
C1770      H1776   1.084       .  S
C1777      C1778   1.405       .  A
C1777      C1782   1.405       .  A
C1778      C1779   1.396       .  A
C1778      H1787   1.083       .  S
C1779      C1780   1.401       .  A
C1779      H1788   1.084       .  S
C1780      C1786   1.401       .  A
C1780      C1781   1.415       .  A
C1781      C1783   1.403       .  A
C1781      C1782   1.404       .  A
C1782      H1789   1.084       .  S
C1783      C1784   1.398       .  A
C1783      H1790   1.083       .  S
C1784      C1785   1.403       .  A
C1784      H1791   1.083       .  S
C1785      C1786   1.403       .  A
C1786      H1792   1.085       .  S
C1793      C1794   1.404       .  A
C1793      C1798   1.402       .  A
C1794      C1795   1.401       .  A
C1794      H1803   1.083       .  S
C1795      C1796   1.405       .  A
C1795      H1804   1.084       .  S
C1796      C1802   1.407       .  A
C1796      C1797   1.414       .  A
C1797      C1799   1.401       .  A
C1797      C1798   1.402       .  A
C1798      H1805   1.085       .  S
C1799      C1800   1.396       .  A
C1799      H1806   1.084       .  S
C1800      C1801   1.405       .  A
C1800      H1807   1.083       .  S
C1801      C1802   1.409       .  A
C1802      H1808   1.084       .  S
C1809      C1810   1.405       .  A
C1809      C1814   1.410       .  A
C1810      C1811   1.401       .  A
C1810      H1819   1.083       .  S
C1811      C1812   1.405       .  A
C1811      H1820   1.083       .  S
C1812      C1818   1.408       .  A
C1812      C1813   1.412       .  A
C1813      C1815   1.403       .  A
C1813      C1814   1.405       .  A
C1814      H1821   1.084       .  S
C1815      C1816   1.399       .  A
C1815      H1822   1.084       .  S
C1816      C1817   1.406       .  A
C1816      H1823   1.083       .  S
C1817      C1818   1.411       .  A
C1818      H1824   1.084       .  S
C1825      C1826   1.406       .  A
C1825      C1830   1.410       .  A
C1826      C1827   1.398       .  A
C1826      H1835   1.083       .  S
C1827      C1828   1.402       .  A
C1827      H1836   1.084       .  S
C1828      C1834   1.409       .  A
C1828      C1829   1.415       .  A
C1829      C1831   1.405       .  A
C1829      C1830   1.413       .  A
C1830      H1837   1.084       .  S
C1831      C1832   1.403       .  A
C1831      H1838   1.083       .  S
C1832      C1833   1.406       .  A
C1832      H1839   1.083       .  S
C1833      C1834   1.406       .  A
C1834      H1840   1.084       .  S
C1841      C1842   1.414       .  A
C1841      C1846   1.411       .  A
C1842      C1843   1.402       .  A
C1842      H1851   1.077       .  S
C1843      C1844   1.402       .  A
C1843      H1852   1.084       .  S
C1844      C1850   1.412       .  A
C1844      C1845   1.412       .  A
C1845      C1847   1.399       .  A
C1845      C1846   1.406       .  A
C1846      H1853   1.084       .  S
C1847      C1848   1.395       .  A
C1847      H1854   1.084       .  S
C1848      C1849   1.409       .  A
C1848      H1855   1.083       .  S
C1849      C1850   1.410       .  A
C1850      H1856   1.084       .  S
C1857      C1858   1.410       .  A
C1857      C1862   1.411       .  A
C1858      C1859   1.396       .  A
C1858      H1867   1.083       .  S
C1859      C1860   1.399       .  A
C1859      H1868   1.084       .  S
C1860      C1866   1.404       .  A
C1860      C1861   1.412       .  A
C1861      C1863   1.402       .  A
C1861      C1862   1.404       .  A
C1862      H1869   1.080       .  S
C1863      C1864   1.397       .  A
C1863      H1870   1.084       .  S
C1864      C1865   1.406       .  A
C1864      H1871   1.083       .  S
C1865      C1866   1.406       .  A
C1866      H1872   1.084       .  S
C1873      C1874   1.406       .  A
C1873      C1878   1.412       .  A
C1874      C1875   1.399       .  A
C1874      H1883   1.083       .  S
C1875      C1876   1.403       .  A
C1875      H1884   1.083       .  S
C1876      C1882   1.407       .  A
C1876      C1877   1.411       .  A
C1877      C1879   1.404       .  A
C1877      C1878   1.412       .  A
C1878      H1885   1.084       .  S
C1879      C1880   1.403       .  A
C1879      H1886   1.083       .  S
C1880      C1881   1.409       .  A
C1880      H1887   1.080       .  S
C1881      C1882   1.415       .  A
C1882      H1888   1.081       .  S
C1889      C1890   1.408       .  A
C1889      C1894   1.402       .  A
C1890      C1891   1.399       .  A
C1890      H1899   1.083       .  S
C1891      C1892   1.401       .  A
C1891      H1900   1.083       .  S
C1892      C1898   1.410       .  A
C1892      C1893   1.416       .  A
C1893      C1895   1.399       .  A
C1893      C1894   1.406       .  A
C1894      H1901   1.082       .  S
C1895      C1896   1.394       .  A
C1895      H1902   1.084       .  S
C1896      C1897   1.407       .  A
C1896      H1903   1.083       .  S
C1897      C1898   1.405       .  A
C1898      H1904   1.084       .  S
C1905      C1906   1.406       .  A
C1905      C1910   1.405       .  A
C1906      C1907   1.403       .  A
C1906      H1915   1.083       .  S
C1907      C1908   1.405       .  A
C1907      H1916   1.083       .  S
C1908      C1914   1.412       .  A
C1908      C1909   1.413       .  A
C1909      C1911   1.397       .  A
C1909      C1910   1.406       .  A
C1910      H1917   1.084       .  S
C1911      C1912   1.395       .  A
C1911      H1918   1.084       .  S
C1912      C1913   1.413       .  A
C1912      H1919   1.081       .  S
C1913      C1914   1.414       .  A
C1914      H1920   1.083       .  S
C1921      C1922   1.405       .  A
C1921      C1926   1.407       .  A
C1922      C1923   1.398       .  A
C1922      H1931   1.083       .  S
C1923      C1924   1.402       .  A
C1923      H1932   1.083       .  S
C1924      C1930   1.406       .  A
C1924      C1925   1.414       .  A
C1925      C1927   1.403       .  A
C1925      C1926   1.408       .  A
C1926      H1933   1.084       .  S
C1927      C1928   1.400       .  A
C1927      H1934   1.083       .  S
C1928      C1929   1.405       .  A
C1928      H1935   1.083       .  S
C1929      C1930   1.407       .  A
C1930      H1936   1.084       .  S
C1937      C1938   1.408       .  A
C1937      C1942   1.411       .  A
C1938      C1939   1.396       .  A
C1938      H1947   1.083       .  S
C1939      C1940   1.400       .  A
C1939      H1948   1.084       .  S
C1940      C1946   1.403       .  A
C1940      C1941   1.413       .  A
C1941      C1943   1.406       .  A
C1941      C1942   1.410       .  A
C1942      H1949   1.084       .  S
C1943      C1944   1.403       .  A
C1943      H1950   1.083       .  S
C1944      C1945   1.403       .  A
C1944      H1951   1.083       .  S
C1945      C1946   1.405       .  A
C1946      H1952   1.085       .  S
C1953      C1954   1.406       .  A
C1953      C1958   1.408       .  A
C1954      C1955   1.399       .  A
C1954      H1963   1.083       .  S
C1955      C1956   1.403       .  A
C1955      H1964   1.083       .  S
C1956      C1962   1.407       .  A
C1956      C1957   1.414       .  A
C1957      C1959   1.403       .  A
C1957      C1958   1.407       .  A
C1958      H1965   1.084       .  S
C1959      C1960   1.399       .  A
C1959      H1966   1.084       .  S
C1960      C1961   1.405       .  A
C1960      H1967   1.083       .  S
C1961      C1962   1.408       .  A
C1962      H1968   1.084       .  S
C1969      C1970   1.407       .  A
C1969      C1974   1.407       .  A
C1970      C1971   1.407       .  A
C1970      H1979   1.083       .  S
C1971      C1972   1.407       .  A
C1971      H1980   1.084       .  S
C1972      C1978   1.414       .  A
C1972      C1973   1.412       .  A
C1973      C1975   1.399       .  A
C1973      C1974   1.402       .  A
C1974      H1981   1.085       .  S
C1975      C1976   1.393       .  A
C1975      H1982   1.084       .  S
C1976      C1977   1.407       .  A
C1976      H1983   1.082       .  S
C1977      C1978   1.414       .  A
C1978      H1984   1.083       .  S
C1985      C1986   1.405       .  A
C1985      C1990   1.409       .  A
C1986      C1987   1.398       .  A
C1986      H1995   1.083       .  S
C1987      C1988   1.403       .  A
C1987      H1996   1.084       .  S
C1988      C1994   1.401       .  A
C1988      C1989   1.411       .  A
C1989      C1991   1.403       .  A
C1989      C1990   1.401       .  A
C1990      H1997   1.084       .  S
C1991      C1992   1.397       .  A
C1991      H1998   1.083       .  S
C1992      C1993   1.402       .  A
C1992      H1999   1.080       .  S
C1993      C1994   1.410       .  A
C1994      H2000   1.084       .  S
C2001      C2002   1.403       .  A
C2001      C2006   1.406       .  A
C2002      C2003   1.390       .  A
C2002      H2011   1.084       .  S
C2003      C2004   1.399       .  A
C2003      H2012   1.084       .  S
C2004      C2010   1.397       .  A
C2004      C2005   1.414       .  A
C2005      C2007   1.404       .  A
C2005      C2006   1.409       .  A
C2006      H2013   1.084       .  S
C2007      C2008   1.402       .  A
C2007      H2014   1.084       .  S
C2008      C2009   1.406       .  A
C2008      H2015   1.081       .  S
C2009      C2010   1.405       .  A
C2010      H2016   1.084       .  S
C2017      C2018   1.404       .  A
C2017      C2022   1.407       .  A
C2018      C2019   1.397       .  A
C2018      H2027   1.083       .  S
C2019      C2020   1.402       .  A
C2019      H2028   1.083       .  S
C2020      C2026   1.401       .  A
C2020      C2021   1.413       .  A
C2021      C2023   1.403       .  A
C2021      C2022   1.402       .  A
C2022      H2029   1.084       .  S
C2023      C2024   1.397       .  A
C2023      H2030   1.083       .  S
C2024      C2025   1.402       .  A
C2024      H2031   1.083       .  S
C2025      C2026   1.404       .  A
C2026      H2032   1.084       .  S
C2033      C2034   1.408       .  A
C2033      C2038   1.407       .  A
C2034      C2035   1.398       .  A
C2034      H2043   1.083       .  S
C2035      C2036   1.402       .  A
C2035      H2044   1.084       .  S
C2036      C2042   1.407       .  A
C2036      C2037   1.412       .  A
C2037      C2039   1.399       .  A
C2037      C2038   1.407       .  A
C2038      H2045   1.084       .  S
C2039      C2040   1.397       .  A
C2039      H2046   1.084       .  S
C2040      C2041   1.410       .  A
C2040      H2047   1.078       .  S
C2041      C2042   1.412       .  A
C2042      H2048   1.082       .  S
C2049      C2050   1.407       .  A
C2049      C2054   1.405       .  A
C2050      C2051   1.394       .  A
C2050      H2059   1.083       .  S
C2051      C2052   1.398       .  A
C2051      H2060   1.084       .  S
C2052      C2058   1.405       .  A
C2052      C2053   1.416       .  A
C2053      C2055   1.402       .  A
C2053      C2054   1.411       .  A
C2054      H2061   1.084       .  S
C2055      C2056   1.401       .  A
C2055      H2062   1.084       .  S
C2056      C2057   1.410       .  A
C2056      H2063   1.083       .  S
C2057      C2058   1.405       .  A
C2058      H2064   1.084       .  S
C2065      C2066   1.411       .  A
C2065      C2070   1.406       .  A
C2066      C2067   1.394       .  A
C2066      H2075   1.082       .  S
C2067      C2068   1.397       .  A
C2067      H2076   1.084       .  S
C2068      C2074   1.409       .  A
C2068      C2069   1.417       .  A
C2069      C2071   1.400       .  A
C2069      C2070   1.413       .  A
C2070      H2077   1.084       .  S
C2071      C2072   1.400       .  A
C2071      H2078   1.084       .  S
C2072      C2073   1.411       .  A
C2072      H2079   1.083       .  S
C2073      C2074   1.404       .  A
C2074      H2080   1.084       .  S
C2081      C2082   1.406       .  A
C2081      C2086   1.406       .  A
C2082      C2083   1.404       .  A
C2082      H2091   1.083       .  S
C2083      C2084   1.405       .  A
C2083      H2092   1.083       .  S
C2084      C2090   1.413       .  A
C2084      C2085   1.415       .  A
C2085      C2087   1.402       .  A
C2085      C2086   1.408       .  A
C2086      H2093   1.084       .  S
C2087      C2088   1.398       .  A
C2087      H2094   1.084       .  S
C2088      C2089   1.407       .  A
C2088      H2095   1.083       .  S
C2089      C2090   1.410       .  A
C2090      H2096   1.084       .  S
C2097      C2098   1.409       .  A
C2097      C2102   1.408       .  A
C2098      C2099   1.397       .  A
C2098      H2107   1.083       .  S
C2099      C2100   1.400       .  A
C2099      H2108   1.084       .  S
C2100      C2106   1.407       .  A
C2100      C2101   1.412       .  A
C2101      C2103   1.399       .  A
C2101      C2102   1.409       .  A
C2102      H2109   1.084       .  S
C2103      C2104   1.398       .  A
C2103      H2110   1.084       .  S
C2104      C2105   1.414       .  A
C2104      H2111   1.077       .  S
C2105      C2106   1.411       .  A
C2106      H2112   1.084       .  S
C2113      C2114   1.403       .  A
C2113      C2118   1.407       .  A
C2114      C2115   1.399       .  A
C2114      H2123   1.076       .  S
C2115      C2116   1.402       .  A
C2115      H2124   1.084       .  S
C2116      C2122   1.407       .  A
C2116      C2117   1.414       .  A
C2117      C2119   1.403       .  A
C2117      C2118   1.406       .  A
C2118      H2125   1.084       .  S
C2119      C2120   1.399       .  A
C2119      H2126   1.084       .  S
C2120      C2121   1.405       .  A
C2120      H2127   1.083       .  S
C2121      C2122   1.405       .  A
C2122      H2128   1.084       .  S
C2129      C2130   1.409       .  A
C2129      C2134   1.408       .  A
C2130      C2131   1.395       .  A
C2130      H2139   1.083       .  S
C2131      C2132   1.399       .  A
C2131      H2140   1.084       .  S
C2132      C2138   1.403       .  A
C2132      C2133   1.412       .  A
C2133      C2135   1.401       .  A
C2133      C2134   1.409       .  A
C2134      H2141   1.084       .  S
C2135      C2136   1.400       .  A
C2135      H2142   1.084       .  S
C2136      C2137   1.412       .  A
C2136      H2143   1.076       .  S
C2137      C2138   1.409       .  A
C2138      H2144   1.085       .  S
C2145      C2146   1.408       .  A
C2145      C2150   1.406       .  A
C2146      C2147   1.401       .  A
C2146      H2155   1.083       .  S
C2147      C2148   1.403       .  A
C2147      H2156   1.084       .  S
C2148      C2154   1.411       .  A
C2148      C2149   1.414       .  A
C2149      C2151   1.399       .  A
C2149      C2150   1.408       .  A
C2150      H2157   1.084       .  S
C2151      C2152   1.397       .  A
C2151      H2158   1.084       .  S
C2152      C2153   1.409       .  A
C2152      H2159   1.081       .  S
C2153      C2154   1.410       .  A
C2154      H2160   1.083       .  S
C2161      C2162   1.415       .  A
C2161      C2166   1.409       .  A
C2162      C2163   1.398       .  A
C2162      H2171   1.075       .  S
C2163      C2164   1.398       .  A
C2163      H2172   1.084       .  S
C2164      C2170   1.408       .  A
C2164      C2165   1.413       .  A
C2165      C2167   1.399       .  A
C2165      C2166   1.404       .  A
C2166      H2173   1.085       .  S
C2167      C2168   1.395       .  A
C2167      H2174   1.084       .  S
C2168      C2169   1.409       .  A
C2168      H2175   1.083       .  S
C2169      C2170   1.407       .  A
C2170      H2176   1.084       .  S
C2177      C2178   1.402       .  A
C2177      C2182   1.403       .  A
C2178      C2179   1.398       .  A
C2178      H2187   1.084       .  S
C2179      C2180   1.403       .  A
C2179      H2188   1.084       .  S
C2180      C2186   1.406       .  A
C2180      C2181   1.415       .  A
C2181      C2183   1.403       .  A
C2181      C2182   1.408       .  A
C2182      H2189   1.084       .  S
C2183      C2184   1.400       .  A
C2183      H2190   1.083       .  S
C2184      C2185   1.407       .  A
C2184      H2191   1.083       .  S
C2185      C2186   1.409       .  A
C2186      H2192   1.084       .  S
C2193      C2194   1.405       .  A
C2193      C2198   1.406       .  A
C2194      C2195   1.395       .  A
C2194      H2203   1.083   1_556  S
C2195      C2196   1.401       .  A
C2195      H2204   1.084       .  S
C2196      C2202   1.399       .  A
C2196      C2197   1.411       .  A
C2197      C2199   1.401       .  A
C2197      C2198   1.401       .  A
C2198      H2205   1.084       .  S
C2199      C2200   1.397       .  A
C2199      H2206   1.084       .  S
C2200      C2201   1.407       .  A
C2200      H2207   1.081       .  S
C2201      C2202   1.409       .  A
C2202      H2208   1.082       .  S
C2209      C2210   1.402       .  A
C2209      C2214   1.405       .  A
C2210      C2211   1.397       .  A
C2210      H2219   1.079       .  S
C2211      C2212   1.401       .  A
C2211      H2220   1.083       .  S
C2212      C2218   1.407       .  A
C2212      C2213   1.415       .  A
C2213      C2215   1.402       .  A
C2213      C2214   1.409       .  A
C2214      H2221   1.084       .  S
C2215      C2216   1.400       .  A
C2215      H2222   1.083       .  S
C2216      C2217   1.408       .  A
C2216      H2223   1.083       .  S
C2217      C2218   1.407       .  A
C2218      H2224   1.084       .  S
C2225      C2226   1.406       .  A
C2225      C2230   1.406       .  A
C2226      C2227   1.395       .  A
C2226      H2235   1.083   1_565  S
C2227      C2228   1.400       .  A
C2227      H2236   1.083       .  S
C2228      C2234   1.403       .  A
C2228      C2229   1.413       .  A
C2229      C2231   1.398       .  A
C2229      C2230   1.403       .  A
C2230      H2237   1.084       .  S
C2231      C2232   1.394       .  A
C2231      H2238   1.084       .  S
C2232      C2233   1.412       .  A
C2232      H2239   1.082       .  S
C2233      C2234   1.408       .  A
C2234      H2240   1.081       .  S
C2241      C2242   1.411       .  A
C2241      C2246   1.412       .  A
C2242      C2243   1.395       .  A
C2242      H2251   1.082       .  S
C2243      C2244   1.399       .  A
C2243      H2252   1.084       .  S
C2244      C2250   1.403       .  A
C2244      C2245   1.412       .  A
C2245      C2247   1.404       .  A
C2245      C2246   1.406       .  A
C2246      H2253   1.082       .  S
C2247      C2248   1.400       .  A
C2247      H2254   1.084       .  S
C2248      C2249   1.404       .  A
C2248      H2255   1.083       .  S
C2249      C2250   1.406       .  A
C2250      H2256   1.085       .  S
C2257      C2258   1.408       .  A
C2257      C2262   1.402       .  A
C2258      C2259   1.396       .  A
C2258      H2267   1.083       .  S
C2259      C2260   1.400       .  A
C2259      H2268   1.084       .  S
C2260      C2266   1.404       .  A
C2260      C2261   1.415       .  A
C2261      C2263   1.397       .  A
C2261      C2262   1.401       .  A
C2262      H2269   1.084       .  S
C2263      C2264   1.392       .  A
C2263      H2270   1.084       .  S
C2264      C2265   1.410       .  A
C2264      H2271   1.081       .  S
C2265      C2266   1.405       .  A
C2266      H2272   1.083       .  S
C2273      C2274   1.402       .  A
C2273      C2278   1.406       .  A
C2274      C2275   1.398       .  A
C2274      H2283   1.083       .  S
C2275      C2276   1.404       .  A
C2275      H2284   1.084       .  S
C2276      C2282   1.403       .  A
C2276      C2277   1.413       .  A
C2277      C2279   1.405       .  A
C2277      C2278   1.406       .  A
C2278      H2285   1.085       .  S
C2279      C2280   1.401       .  A
C2279      H2286   1.084       .  S
C2280      C2281   1.403       .  A
C2280      H2287   1.081       .  S
C2281      C2282   1.408       .  A
C2282      H2288   1.084       .  S
C2289      C2290   1.407       .  A
C2289      C2294   1.409       .  A
C2290      C2291   1.400       .  A
C2290      H2299   1.079       .  S
C2291      C2292   1.403       .  A
C2291      H2300   1.083       .  S
C2292      C2298   1.407       .  A
C2292      C2293   1.413       .  A
C2293      C2295   1.401       .  A
C2293      C2294   1.400       .  A
C2294      H2301   1.082       .  S
C2295      C2296   1.394       .  A
C2295      H2302   1.083       .  S
C2296      C2297   1.401       .  A
C2296      H2303   1.084       .  S
C2297      C2298   1.405       .  A
C2298      H2304   1.084       .  S
C2305      C2306   1.407       .  A
C2305      C2310   1.413       .  A
C2306      C2307   1.399       .  A
C2306      H2315   1.083       .  S
C2307      C2308   1.403       .  A
C2307      H2316   1.084       .  S
C2308      C2314   1.405       .  A
C2308      C2309   1.412       .  A
C2309      C2311   1.406       .  A
C2309      C2310   1.409       .  A
C2310      H2317   1.084       .  S
C2311      C2312   1.402       .  A
C2311      H2318   1.084       .  S
C2312      C2313   1.404       .  A
C2312      H2319   1.083       .  S
C2313      C2314   1.408       .  A
C2314      H2320   1.084       .  S
C2321      C2322   1.411       .  A
C2321      C2326   1.411       .  A
C2322      C2323   1.401       .  A
C2322      H2331   1.077       .  S
C2323      C2324   1.402       .  A
C2323      H2332   1.084       .  S
C2324      C2330   1.409       .  A
C2324      C2325   1.412       .  A
C2325      C2327   1.401       .  A
C2325      C2326   1.404       .  A
C2326      H2333   1.085       .  S
C2327      C2328   1.397       .  A
C2327      H2334   1.084       .  S
C2328      C2329   1.408       .  A
C2328      H2335   1.083       .  S
C2329      C2330   1.409       .  A
C2330      H2336   1.084       .  S
C2337      C2338   1.405       .  A
C2337      C2342   1.401       .  A
C2338      C2339   1.402       .  A
C2338      H2347   1.083       .  S
C2339      C2340   1.404       .  A
C2339      H2348   1.083       .  S
C2340      C2346   1.410       .  A
C2340      C2341   1.414       .  A
C2341      C2343   1.399       .  A
C2341      C2342   1.404       .  A
C2342      H2349   1.077       .  S
C2343      C2344   1.395       .  A
C2343      H2350   1.083       .  S
C2344      C2345   1.407       .  A
C2344      H2351   1.083       .  S
C2345      C2346   1.409       .  A
C2346      H2352   1.084       .  S
C2353      C2354   1.406       .  A
C2353      C2358   1.411       .  A
C2354      C2355   1.407       .  A
C2354      H2363   1.083       .  S
C2355      C2356   1.408       .  A
C2355      H2364   1.083       .  S
C2356      C2362   1.413       .  A
C2356      C2357   1.409       .  A
C2357      C2359   1.399       .  A
C2357      C2358   1.402       .  A
C2358      H2365   1.084       .  S
C2359      C2360   1.395       .  A
C2359      H2366   1.084       .  S
C2360      C2361   1.409       .  A
C2360      H2367   1.077       .  S
C2361      C2362   1.419       .  A
C2362      H2368   1.081       .  S
C2369      C2370   1.406       .  A
C2369      C2374   1.410       .  A
C2370      C2371   1.396       .  A
C2370      H2379   1.083       .  S
C2371      C2372   1.401       .  A
C2371      H2380   1.084       .  S
C2372      C2378   1.401       .  A
C2372      C2373   1.412       .  A
C2373      C2375   1.404       .  A
C2373      C2374   1.406       .  A
C2374      H2381   1.084       .  S
C2375      C2376   1.400       .  A
C2375      H2382   1.083       .  S
C2376      C2377   1.405       .  A
C2376      H2383   1.083       .  S
C2377      C2378   1.407       .  A
C2378      H2384   1.084       .  S
C2385      C2386   1.405       .  A
C2385      C2390   1.407       .  A
C2386      C2387   1.402       .  A
C2386      H2395   1.083       .  S
C2387      C2388   1.405       .  A
C2387      H2396   1.084       .  S
C2388      C2394   1.407       .  A
C2388      C2389   1.413       .  A
C2389      C2391   1.404       .  A
C2389      C2390   1.405       .  A
C2390      H2397   1.084       .  S
C2391      C2392   1.399       .  A
C2391      H2398   1.083       .  S
C2392      C2393   1.401       .  A
C2392      H2399   1.083       .  S
C2393      C2394   1.408       .  A
C2394      H2400   1.085       .  S
C2401      C2402   1.409       .  A
C2401      C2406   1.404       .  A
C2402      C2403   1.401       .  A
C2402      H2411   1.083       .  S
C2403      C2404   1.403       .  A
C2403      H2412   1.084       .  S
C2404      C2410   1.411       .  A
C2404      C2405   1.414       .  A
C2405      C2407   1.396       .  A
C2405      C2406   1.402       .  A
C2406      H2413   1.084       .  S
C2407      C2408   1.391       .  A
C2407      H2414   1.084       .  S
C2408      C2409   1.410       .  A
C2408      H2415   1.083       .  S
C2409      C2410   1.411       .  A
C2410      H2416   1.080       .  S
C2417      C2418   1.405       .  A
C2417      C2422   1.409       .  A
C2418      C2419   1.399       .  A
C2418      H2427   1.083       .  S
C2419      C2420   1.404       .  A
C2419      H2428   1.084       .  S
C2420      C2426   1.402       .  A
C2420      C2421   1.410       .  A
C2421      C2423   1.403       .  A
C2421      C2422   1.400       .  A
C2422      H2429   1.084       .  S
C2423      C2424   1.397       .  A
C2423      H2430   1.084       .  S
C2424      C2425   1.404       .  A
C2424      H2431   1.082       .  S
C2425      C2426   1.411       .  A
C2426      H2432   1.083       .  S
C2433      C2434   1.403       .  A
C2433      C2438   1.403       .  A
C2434      C2435   1.394       .  A
C2434      H2443   1.084       .  S
C2435      C2436   1.401       .  A
C2435      H2444   1.084       .  S
C2436      C2442   1.399       .  A
C2436      C2437   1.415       .  A
C2437      C2439   1.403       .  A
C2437      C2438   1.405       .  A
C2438      H2445   1.084       .  S
C2439      C2440   1.399       .  A
C2439      H2446   1.083       .  S
C2440      C2441   1.403       .  A
C2440      H2447   1.083       .  S
C2441      C2442   1.405       .  A
C2442      H2448   1.084       .  S
C2449      C2450   1.401       .  A
C2449      C2454   1.405       .  A
C2450      C2451   1.399       .  A
C2450      H2459   1.083       .  S
C2451      C2452   1.405       .  A
C2451      H2460   1.084       .  S
C2452      C2458   1.403       .  A
C2452      C2453   1.413       .  A
C2453      C2455   1.404       .  A
C2453      C2454   1.404       .  A
C2454      H2461   1.085       .  S
C2455      C2456   1.400       .  A
C2455      H2462   1.084       .  S
C2456      C2457   1.404       .  A
C2456      H2463   1.083       .  S
C2457      C2458   1.408       .  A
C2458      H2464   1.084       .  S
C2465      C2466   1.406       .  A
C2465      C2470   1.406       .  A
C2466      C2467   1.402       .  A
C2466      H2475   1.083       .  S
C2467      C2468   1.404       .  A
C2467      H2476   1.083       .  S
C2468      C2474   1.412       .  A
C2468      C2469   1.415       .  A
C2469      C2471   1.401       .  A
C2469      C2470   1.408       .  A
C2470      H2477   1.084       .  S
C2471      C2472   1.398       .  A
C2471      H2478   1.084       .  S
C2472      C2473   1.406       .  A
C2472      H2479   1.083       .  S
C2473      C2474   1.409       .  A
C2474      H2480   1.084       .  S
C2481      C2482   1.405       .  A
C2481      C2486   1.407       .  A
C2482      C2483   1.399       .  A
C2482      H2491   1.083       .  S
C2483      C2484   1.403       .  A
C2483      H2492   1.084       .  S
C2484      C2490   1.408       .  A
C2484      C2485   1.414       .  A
C2485      C2487   1.403       .  A
C2485      C2486   1.407       .  A
C2486      H2493   1.084       .  S
C2487      C2488   1.399       .  A
C2487      H2494   1.083       .  S
C2488      C2489   1.405       .  A
C2488      H2495   1.083       .  S
C2489      C2490   1.407       .  A
C2490      H2496   1.084       .  S
C2497      C2498   1.409       .  A
C2497      C2502   1.402       .  A
C2498      C2499   1.403       .  A
C2498      H2507   1.083       .  S
C2499      C2500   1.403       .  A
C2499      H2508   1.084       .  S
C2500      C2506   1.414       .  A
C2500      C2501   1.416       .  A
C2501      C2503   1.397       .  A
C2501      C2502   1.404       .  A
C2502      H2509   1.083       .  S
C2503      C2504   1.392       .  A
C2503      H2510   1.084       .  S
C2504      C2505   1.409       .  A
C2504      H2511   1.083       .  S
C2505      C2506   1.408       .  A
C2506      H2512   1.084       .  S
C2513      C2514   1.405       .  A
C2513      C2518   1.411       .  A
C2514      C2515   1.396       .  A
C2514      H2523   1.083       .  S
C2515      C2516   1.401       .  A
C2515      H2524   1.084       .  S
C2516      C2522   1.404       .  A
C2516      C2517   1.414       .  A
C2517      C2519   1.407       .  A
C2517      C2518   1.412       .  A
C2518      H2525   1.084       .  S
C2519      C2520   1.404       .  A
C2519      H2526   1.083       .  S
C2520      C2521   1.403       .  A
C2520      H2527   1.082       .  S
C2521      C2522   1.404       .  A
C2522      H2528   1.085       .  S
C2529      C2530   1.407       .  A
C2529      C2534   1.409       .  A
C2530      C2531   1.395       .  A
C2530      H2539   1.082       .  S
C2531      C2532   1.399       .  A
C2531      H2540   1.083       .  S
C2532      C2538   1.406       .  A
C2532      C2533   1.414       .  A
C2533      C2535   1.403       .  A
C2533      C2534   1.409       .  A
C2534      H2541   1.083       .  S
C2535      C2536   1.400       .  A
C2535      H2542   1.083       .  S
C2536      C2537   1.406       .  A
C2536      H2543   1.083       .  S
C2537      C2538   1.406       .  A
C2538      H2544   1.084       .  S
C2545      C2546   1.411       .  A
C2545      C2550   1.410       .  A
C2546      C2547   1.397       .  A
C2546      H2555   1.078       .  S
C2547      C2548   1.399       .  A
C2547      H2556   1.084       .  S
C2548      C2554   1.403       .  A
C2548      C2549   1.412       .  A
C2549      C2551   1.401       .  A
C2549      C2550   1.402       .  A
C2550      H2557   1.085       .  S
C2551      C2552   1.396       .  A
C2551      H2558   1.084       .  S
C2552      C2553   1.408       .  A
C2552      H2559   1.083       .  S
C2553      C2554   1.406       .  A
C2554      H2560   1.084       .  S
C2561      C2562   1.407       .  A
C2561      C2566   1.412       .  A
C2562      C2563   1.401       .  A
C2562      H2571   1.082       .  S
C2563      C2564   1.404       .  A
C2563      H2572   1.083       .  S
C2564      C2570   1.407       .  A
C2564      C2565   1.411       .  A
C2565      C2567   1.404       .  A
C2565      C2566   1.405       .  A
C2566      H2573   1.082       .  S
C2567      C2568   1.399       .  A
C2567      H2574   1.083       .  S
C2568      C2569   1.405       .  A
C2568      H2575   1.083       .  S
C2569      C2570   1.411       .  A
C2570      H2576   1.084       .  S
C2577      C2578   1.408       .  A
C2577      C2582   1.412       .  A
C2578      C2579   1.397       .  A
C2578      H2587   1.081       .  S
C2579      C2580   1.400       .  A
C2579      H2588   1.084       .  S
C2580      C2586   1.407       .  A
C2580      C2581   1.414       .  A
C2581      C2583   1.405       .  A
C2581      C2582   1.412       .  A
C2582      H2589   1.083       .  S
C2583      C2584   1.403       .  A
C2583      H2590   1.084       .  S
C2584      C2585   1.406       .  A
C2584      H2591   1.083       .  S
C2585      C2586   1.405       .  A
C2586      H2592   1.084       .  S
C2593      C2594   1.412       .  A
C2593      C2598   1.410       .  A
C2594      C2595   1.401       .  A
C2594      H2603   1.078       .  S
C2595      C2596   1.402       .  A
C2595      H2604   1.084       .  S
C2596      C2602   1.409       .  A
C2596      C2597   1.411       .  A
C2597      C2599   1.400       .  A
C2597      C2598   1.402       .  A
C2598      H2605   1.085       .  S
C2599      C2600   1.396       .  A
C2599      H2606   1.084       .  S
C2600      C2601   1.407       .  A
C2600      H2607   1.083       .  S
C2601      C2602   1.410       .  A
C2602      H2608   1.084       .  S
C2609      C2610   1.405       .  A
C2609      C2614   1.403       .  A
C2610      C2611   1.406       .  A
C2610      H2619   1.083       .  S
C2611      C2612   1.407       .  A
C2611      H2620   1.084       .  S
C2612      C2618   1.414       .  A
C2612      C2613   1.415       .  A
C2613      C2615   1.398       .  A
C2613      C2614   1.400       .  A
C2614      H2621   1.085       .  S
C2615      C2616   1.391       .  A
C2615      H2622   1.084       .  S
C2616      C2617   1.405       .  A
C2616      H2623   1.083       .  S
C2617      C2618   1.410       .  A
C2618      H2624   1.084       .  S
C2625      C2626   1.410       .  A
C2625      C2630   1.406       .  A
C2626      C2627   1.397       .  A
C2626      H2635   1.083       .  S
C2627      C2628   1.400       .  A
C2627      H2636   1.083       .  S
C2628      C2634   1.409       .  A
C2628      C2629   1.415       .  A
C2629      C2631   1.399       .  A
C2629      C2630   1.409       .  A
C2630      H2637   1.084       .  S
C2631      C2632   1.397       .  A
C2631      H2638   1.083       .  S
C2632      C2633   1.412       .  A
C2632      H2639   1.081       .  S
C2633      C2634   1.407       .  A
C2634      H2640   1.082       .  S
C2641      C2642   1.410       .  A
C2641      C2646   1.410       .  A
C2642      C2643   1.394       .  A
C2642      H2651   1.083       .  S
C2643      C2644   1.398       .  A
C2643      H2652   1.083       .  S
C2644      C2650   1.401       .  A
C2644      C2645   1.412       .  A
C2645      C2647   1.401       .  A
C2645      C2646   1.403       .  A
C2646      H2653   1.078       .  S
C2647      C2648   1.395       .  A
C2647      H2654   1.083       .  S
C2648      C2649   1.407       .  A
C2648      H2655   1.083       .  S
C2649      C2650   1.405       .  A
C2650      H2656   1.084       .  S
C2657      C2658   1.404       .  A
C2657      C2662   1.409       .  A
C2658      C2659   1.398       .  A
C2658      H2667   1.083       .  S
C2659      C2660   1.404       .  A
C2659      H2668   1.084       .  S
C2660      C2666   1.403       .  A
C2660      C2661   1.412       .  A
C2661      C2663   1.405       .  A
C2661      C2662   1.406       .  A
C2662      H2669   1.084       .  S
C2663      C2664   1.401       .  A
C2663      H2670   1.083       .  S
C2664      C2665   1.403       .  A
C2664      H2671   1.083       .  S
C2665      C2666   1.409       .  A
C2666      H2672   1.084       .  S
C2673      C2674   1.406       .  A
C2673      C2678   1.409       .  A
C2674      C2675   1.396       .  A
C2674      H2683   1.083       .  S
C2675      C2676   1.402       .  A
C2675      H2684   1.083       .  S
C2676      C2682   1.401       .  A
C2676      C2677   1.412       .  A
C2677      C2679   1.403       .  A
C2677      C2678   1.404       .  A
C2678      H2685   1.084       .  S
C2679      C2680   1.399       .  A
C2679      H2686   1.083       .  S
C2680      C2681   1.405       .  A
C2680      H2687   1.081       .  S
C2681      C2682   1.408       .  A
C2682      H2688   1.083       .  S
C2689      C2690   1.404       .  A
C2689      C2694   1.409       .  A
C2690      C2691   1.399       .  A
C2690      H2699   1.083       .  S
C2691      C2692   1.403       .  A
C2691      H2700   1.083       .  S
C2692      C2698   1.404       .  A
C2692      C2693   1.413       .  A
C2693      C2695   1.404       .  A
C2693      C2694   1.404       .  A
C2694      H2701   1.084       .  S
C2695      C2696   1.399       .  A
C2695      H2702   1.084       .  S
C2696      C2697   1.401       .  A
C2696      H2703   1.082       .  S
C2697      C2698   1.404       .  A
C2698      H2704   1.084       .  S
C2705      C2706   1.407       .  A
C2705      C2710   1.410       .  A
C2706      C2707   1.398       .  A
C2706      H2715   1.083       .  S
C2707      C2708   1.401       .  A
C2707      H2716   1.084       .  S
C2708      C2714   1.407       .  A
C2708      C2709   1.415       .  A
C2709      C2711   1.405       .  A
C2709      C2710   1.412       .  A
C2710      H2717   1.084       .  S
C2711      C2712   1.402       .  A
C2711      H2718   1.084       .  S
C2712      C2713   1.405       .  A
C2712      H2719   1.083       .  S
C2713      C2714   1.404       .  A
C2714      H2720   1.085       .  S
C2721      C2722   1.402       .  A
C2721      C2726   1.408       .  A
C2722      C2723   1.395       .  A
C2722      H2731   1.083       .  S
C2723      C2724   1.402       .  A
C2723      H2732   1.084       .  S
C2724      C2730   1.400       .  A
C2724      C2725   1.412       .  A
C2725      C2727   1.405       .  A
C2725      C2726   1.406       .  A
C2726      H2733   1.084       .  S
C2727      C2728   1.401       .  A
C2727      H2734   1.084       .  S
C2728      C2729   1.406       .  A
C2728      H2735   1.083       .  S
C2729      C2730   1.408       .  A
C2730      H2736   1.084       .  S
C2737      C2738   1.406       .  A
C2737      C2742   1.409       .  A
C2738      C2739   1.398       .  A
C2738      H2747   1.083       .  S
C2739      C2740   1.401       .  A
C2739      H2748   1.084       .  S
C2740      C2746   1.408       .  A
C2740      C2741   1.415       .  A
C2741      C2743   1.404       .  A
C2741      C2742   1.413       .  A
C2742      H2749   1.084       .  S
C2743      C2744   1.402       .  A
C2743      H2750   1.083       .  S
C2744      C2745   1.408       .  A
C2744      H2751   1.083       .  S
C2745      C2746   1.406       .  A
C2746      H2752   1.084       .  S
C2753      C2754   1.411       .  A
C2753      C2758   1.409       .  A
C2754      C2755   1.394       .  A
C2754      H2763   1.084       .  S
C2755      C2756   1.398       .  A
C2755      H2764   1.084       .  S
C2756      C2762   1.402       .  A
C2756      C2757   1.413       .  A
C2757      C2759   1.401       .  A
C2757      C2758   1.404       .  A
C2758      H2765   1.077       .  S
C2759      C2760   1.396       .  A
C2759      H2766   1.083       .  S
C2760      C2761   1.406       .  A
C2760      H2767   1.083       .  S
C2761      C2762   1.406       .  A
C2762      H2768   1.084       .  S
C2769      C2770   1.403       .  A
C2769      C2774   1.407       .  A
C2770      C2771   1.395       .  A
C2770      H2779   1.083       .  S
C2771      C2772   1.402       .  A
C2771      H2780   1.084       .  S
C2772      C2778   1.401       .  A
C2772      C2773   1.413       .  A
C2773      C2775   1.404       .  A
C2773      C2774   1.405       .  A
C2774      H2781   1.084       .  S
C2775      C2776   1.400       .  A
C2775      H2782   1.084       .  S
C2776      C2777   1.406       .  A
C2776      H2783   1.083       .  S
C2777      C2778   1.408       .  A
C2778      H2784   1.084       .  S
C2785      C2786   1.407       .  A
C2785      C2790   1.409       .  A
C2786      C2787   1.397       .  A
C2786      H2795   1.081       .  S
C2787      C2788   1.400       .  A
C2787      H2796   1.084       .  S
C2788      C2794   1.405       .  A
C2788      C2789   1.413       .  A
C2789      C2791   1.402       .  A
C2789      C2790   1.406       .  A
C2790      H2797   1.083       .  S
C2791      C2792   1.398       .  A
C2791      H2798   1.084       .  S
C2792      C2793   1.406       .  A
C2792      H2799   1.083       .  S
C2793      C2794   1.406       .  A
C2794      H2800   1.084       .  S
C2801      C2802   1.402       .  A
C2801      C2806   1.404       .  A
C2802      C2803   1.395       .  A
C2802      H2811   1.084       .  S
C2803      C2804   1.402       .  A
C2803      H2812   1.084       .  S
C2804      C2810   1.404       .  A
C2804      C2805   1.415       .  A
C2805      C2807   1.403       .  A
C2805      C2806   1.409       .  A
C2806      H2813   1.084       .  S
C2807      C2808   1.401       .  A
C2807      H2814   1.084       .  S
C2808      C2809   1.408       .  A
C2808      H2815   1.083       .  S
C2809      C2810   1.407       .  A
C2810      H2816   1.084       .  S
C2817      C2818   1.409       .  A
C2817      C2822   1.408       .  A
C2818      C2819   1.398       .  A
C2818      H2827   1.083   1_556  S
C2819      C2820   1.401       .  A
C2819      H2828   1.084       .  S
C2820      C2826   1.409       .  A
C2820      C2821   1.413       .  A
C2821      C2823   1.400       .  A
C2821      C2822   1.409       .  A
C2822      H2829   1.084       .  S
C2823      C2824   1.398       .  A
C2823      H2830   1.084       .  S
C2824      C2825   1.411       .  A
C2824      H2831   1.082       .  S
C2825      C2826   1.412       .  A
C2826      H2832   1.081       .  S
C2833      C2834   1.408       .  A
C2833      C2838   1.402       .  A
C2834      C2835   1.403       .  A
C2834      H2843   1.083       .  S
C2835      C2836   1.404       .  A
C2835      H2844   1.083       .  S
C2836      C2842   1.413       .  A
C2836      C2837   1.415       .  A
C2837      C2839   1.397       .  A
C2837      C2838   1.402       .  A
C2838      H2845   1.081       .  S
C2839      C2840   1.391       .  A
C2839      H2846   1.084       .  S
C2840      C2841   1.407       .  A
C2840      H2847   1.084       .  S
C2841      C2842   1.407       .  A
C2842      H2848   1.084       .  S
C2849      C2850   1.401       .  A
C2849      C2854   1.404       .  A
C2850      C2851   1.401       .  A
C2850      H2859   1.081       .  S
C2851      C2852   1.406       .  A
C2851      H2860   1.084       .  S
C2852      C2858   1.405       .  A
C2852      C2853   1.413       .  A
C2853      C2855   1.402       .  A
C2853      C2854   1.401       .  A
C2854      H2861   1.085       .  S
C2855      C2856   1.396       .  A
C2855      H2862   1.084       .  S
C2856      C2857   1.404       .  A
C2856      H2863   1.083       .  S
C2857      C2858   1.409       .  A
C2858      H2864   1.084       .  S
C2865      C2866   1.409       .  A
C2865      C2870   1.415       .  A
C2866      C2867   1.395       .  A
C2866      H2875   1.080       .  S
C2867      C2868   1.398       .  A
C2867      H2876   1.084       .  S
C2868      C2874   1.407       .  A
C2868      C2869   1.413       .  A
C2869      C2871   1.406       .  A
C2869      C2870   1.415       .  A
C2870      H2877   1.083       .  S
C2871      C2872   1.406       .  A
C2871      H2878   1.083       .  S
C2872      C2873   1.408       .  A
C2872      H2879   1.083       .  S
C2873      C2874   1.407       .  A
C2874      H2880   1.084       .  S
C2881      C2882   1.412       .  A
C2881      C2886   1.409       .  A
C2882      C2883   1.395       .  A
C2882      H2891   1.083       .  S
C2883      C2884   1.397       .  A
C2883      H2892   1.084       .  S
C2884      C2890   1.407       .  A
C2884      C2885   1.415       .  A
C2885      C2887   1.401       .  A
C2885      C2886   1.410       .  A
C2886      H2893   1.080       .  S
C2887      C2888   1.398       .  A
C2887      H2894   1.084       .  S
C2888      C2889   1.409       .  A
C2888      H2895   1.083       .  S
C2889      C2890   1.406       .  A
C2890      H2896   1.084       .  S
C2897      C2898   1.405       .  A
C2897      C2902   1.406       .  A
C2898      C2899   1.399       .  A
C2898      H2907   1.083       .  S
C2899      C2900   1.402       .  A
C2899      H2908   1.084       .  S
C2900      C2906   1.409       .  A
C2900      C2901   1.415       .  A
C2901      C2903   1.402       .  A
C2901      C2902   1.409       .  A
C2902      H2909   1.084       .  S
C2903      C2904   1.400       .  A
C2903      H2910   1.084       .  S
C2904      C2905   1.408       .  A
C2904      H2911   1.083       .  S
C2905      C2906   1.408       .  A
C2906      H2912   1.084       .  S
C2913      C2914   1.411       .  A
C2913      C2918   1.413       .  A
C2914      C2915   1.397       .  A
C2914      H2923   1.079       .  S
C2915      C2916   1.400       .  A
C2915      H2924   1.083       .  S
C2916      C2922   1.405       .  A
C2916      C2917   1.411       .  A
C2917      C2919   1.403       .  A
C2917      C2918   1.406       .  A
C2918      H2925   1.083       .  S
C2919      C2920   1.399       .  A
C2919      H2926   1.083       .  S
C2920      C2921   1.408       .  A
C2920      H2927   1.083       .  S
C2921      C2922   1.408       .  A
C2922      H2928   1.084       .  S
C2929      C2930   1.407       .  A
C2929      C2934   1.409       .  A
C2930      C2931   1.400       .  A
C2930      H2939   1.083   1_554  S
C2931      C2932   1.404       .  A
C2931      H2940   1.083       .  S
C2932      C2938   1.409       .  A
C2932      C2933   1.411       .  A
C2933      C2935   1.400       .  A
C2933      C2934   1.408       .  A
C2934      H2941   1.084       .  S
C2935      C2936   1.399       .  A
C2935      H2942   1.084       .  S
C2936      C2937   1.410       .  A
C2936      H2943   1.078       .  S
C2937      C2938   1.415       .  A
C2938      H2944   1.081       .  S
C2945      C2946   1.410       .  A
C2945      C2950   1.412       .  A
C2946      C2947   1.396       .  A
C2946      H2955   1.083       .  S
C2947      C2948   1.399       .  A
C2947      H2956   1.084       .  S
C2948      C2954   1.406       .  A
C2948      C2949   1.412       .  A
C2949      C2951   1.403       .  A
C2949      C2950   1.415       .  A
C2950      H2957   1.084       .  S
C2951      C2952   1.404       .  A
C2951      H2958   1.084       .  S
C2952      C2953   1.413       .  A
C2952      H2959   1.077       .  S
C2953      C2954   1.411       .  A
C2954      H2960   1.085       .  S
C2961      C2962   1.403       .  A
C2961      C2966   1.403       .  A
C2962      C2963   1.396       .  A
C2962      H2971   1.083       .  S
C2963      C2964   1.402       .  A
C2963      H2972   1.083       .  S
C2964      C2970   1.403       .  A
C2964      C2965   1.415       .  A
C2965      C2967   1.402       .  A
C2965      C2966   1.405       .  A
C2966      H2973   1.084       .  S
C2967      C2968   1.398       .  A
C2967      H2974   1.083       .  S
C2968      C2969   1.407       .  A
C2968      H2975   1.083       .  S
C2969      C2970   1.406       .  A
C2970      H2976   1.084       .  S
C2977      C2978   1.409       .  A
C2977      C2982   1.412       .  A
C2978      C2979   1.397       .  A
C2978      H2987   1.078       .  S
C2979      C2980   1.400       .  A
C2979      H2988   1.084       .  S
C2980      C2986   1.401       .  A
C2980      C2981   1.411       .  A
C2981      C2983   1.403       .  A
C2981      C2982   1.400       .  A
C2982      H2989   1.084       .  S
C2983      C2984   1.398       .  A
C2983      H2990   1.084       .  S
C2984      C2985   1.404       .  A
C2984      H2991   1.083   1_455  S
C2985      C2986   1.405       .  A
C2986      H2992   1.084       .  S
C2993      C2994   1.407       .  A
C2993      C2998   1.408       .  A
C2994      C2995   1.398       .  A
C2994      H3003   1.082       .  S
C2995      C2996   1.402       .  A
C2995      H3004   1.084       .  S
C2996      C3002   1.405       .  A
C2996      C2997   1.412       .  A
C2997      C2999   1.402       .  A
C2997      C2998   1.403       .  A
C2998      H3005   1.083       .  S
C2999      C3000   1.397       .  A
C2999      H3006   1.084       .  S
C3000      C3001   1.406       .  A
C3000      H3007   1.083       .  S
C3001      C3002   1.409       .  A
C3002      H3008   1.084       .  S
C3009      C3010   1.411       .  A
C3009      C3014   1.401       .  A
C3010      C3011   1.399       .  A
C3010      H3019   1.082       .  S
C3011      C3012   1.401       .  A
C3011      H3020   1.083       .  S
C3012      C3018   1.407       .  A
C3012      C3013   1.414       .  A
C3013      C3015   1.397       .  A
C3013      C3014   1.400       .  A
C3014      H3021   1.079       .  S
C3015      C3016   1.391       .  A
C3015      H3022   1.083       .  S
C3016      C3017   1.408       .  A
C3016      H3023   1.083       .  S
C3017      C3018   1.406       .  A
C3018      H3024   1.084       .  S
C3025      C3026   1.408       .  A
C3025      C3030   1.404       .  A
C3026      C3027   1.399       .  A
C3026      H3035   1.083       .  S
C3027      C3028   1.402       .  A
C3027      H3036   1.084       .  S
C3028      C3034   1.407       .  A
C3028      C3029   1.412       .  A
C3029      C3031   1.396       .  A
C3029      C3030   1.403       .  A
C3030      H3037   1.084       .  S
C3031      C3032   1.394       .  A
C3031      H3038   1.084       .  S
C3032      C3033   1.414       .  A
C3032      H3039   1.075       .  S
C3033      C3034   1.412       .  A
C3034      H3040   1.084       .  S
C3041      C3042   1.403       .  A
C3041      C3046   1.400       .  A
C3042      C3043   1.403       .  A
C3042      H3051   1.083       .  S
C3043      C3044   1.406       .  A
C3043      H3052   1.084       .  S
C3044      C3050   1.411       .  A
C3044      C3045   1.415       .  A
C3045      C3047   1.398       .  A
C3045      C3046   1.402       .  A
C3046      H3053   1.085       .  S
C3047      C3048   1.393       .  A
C3047      H3054   1.084       .  S
C3048      C3049   1.407       .  A
C3048      H3055   1.083       .  S
C3049      C3050   1.410       .  A
C3050      H3056   1.084       .  S
C3057      C3058   1.405       .  A
C3057      C3062   1.407       .  A
C3058      C3059   1.402       .  A
C3058      H3067   1.083       .  S
C3059      C3060   1.405       .  A
C3059      H3068   1.084       .  S
C3060      C3066   1.408       .  A
C3060      C3061   1.412       .  A
C3061      C3063   1.402       .  A
C3061      C3062   1.406       .  A
C3062      H3069   1.084       .  S
C3063      C3064   1.398       .  A
C3063      H3070   1.084       .  S
C3064      C3065   1.405       .  A
C3064      H3071   1.081       .  S
C3065      C3066   1.412       .  A
C3066      H3072   1.084       .  S
C3073      C3074   1.401       .  A
C3073      C3078   1.404       .  A
C3074      C3075   1.399       .  A
C3074      H3083   1.083       .  S
C3075      C3076   1.404       .  A
C3075      H3084   1.083       .  S
C3076      C3082   1.406       .  A
C3076      C3077   1.414       .  A
C3077      C3079   1.402       .  A
C3077      C3078   1.406       .  A
C3078      H3085   1.084       .  S
C3079      C3080   1.399       .  A
C3079      H3086   1.083       .  S
C3080      C3081   1.406       .  A
C3080      H3087   1.083       .  S
C3081      C3082   1.409       .  A
C3082      H3088   1.084       .  S
C3089      C3090   1.406       .  A
C3089      C3094   1.407       .  A
C3090      C3091   1.402       .  A
C3090      H3099   1.083       .  S
C3091      C3092   1.405       .  A
C3091      H3100   1.083       .  S
C3092      C3098   1.410       .  A
C3092      C3093   1.412       .  A
C3093      C3095   1.398       .  A
C3093      C3094   1.402       .  A
C3094      H3101   1.084       .  S
C3095      C3096   1.394       .  A
C3095      H3102   1.084       .  S
C3096      C3097   1.409       .  A
C3096      H3103   1.080       .  S
C3097      C3098   1.412       .  A
C3098      H3104   1.082       .  S
C3105      C3106   1.413       .  A
C3105      C3110   1.408       .  A
C3106      C3107   1.398       .  A
C3106      H3115   1.081       .  S
C3107      C3108   1.399       .  A
C3107      H3116   1.083       .  S
C3108      C3114   1.410       .  A
C3108      C3109   1.414       .  A
C3109      C3111   1.400       .  A
C3109      C3110   1.408       .  A
C3110      H3117   1.080       .  S
C3111      C3112   1.397       .  A
C3111      H3118   1.083       .  S
C3112      C3113   1.408       .  A
C3112      H3119   1.083       .  S
C3113      C3114   1.407       .  A
C3114      H3120   1.084       .  S
C3121      C3122   1.411       .  A
C3121      C3126   1.411       .  A
C3122      C3123   1.392       .  A
C3122      H3131   1.083       .  S
C3123      C3124   1.396       .  A
C3123      H3132   1.084       .  S
C3124      C3130   1.404       .  A
C3124      C3125   1.414       .  A
C3125      C3127   1.402       .  A
C3125      C3126   1.409       .  A
C3126      H3133   1.080       .  S
C3127      C3128   1.399       .  A
C3127      H3134   1.084       .  S
C3128      C3129   1.408       .  A
C3128      H3135   1.083       .  S
C3129      C3130   1.403       .  A
C3130      H3136   1.084       .  S
C3137      C3138   1.408       .  A
C3137      C3142   1.408       .  A
C3138      C3139   1.393       .  A
C3138      H3147   1.083       .  S
C3139      C3140   1.399       .  A
C3139      H3148   1.084       .  S
C3140      C3146   1.400       .  A
C3140      C3141   1.412       .  A
C3141      C3143   1.402       .  A
C3141      C3142   1.408       .  A
C3142      H3149   1.084       .  S
C3143      C3144   1.401       .  A
C3143      H3150   1.084       .  S
C3144      C3145   1.411       .  A
C3144      H3151   1.077       .  S
C3145      C3146   1.409       .  A
C3146      H3152   1.085       .  S
C3153      C3154   1.414       .  A
C3153      C3158   1.412       .  A
C3154      C3155   1.395       .  A
C3154      H3163   1.078       .  S
C3155      C3156   1.397       .  A
C3155      H3164   1.084       .  S
C3156      C3162   1.405       .  A
C3156      C3157   1.412       .  A
C3157      C3159   1.403       .  A
C3157      C3158   1.409       .  A
C3158      H3165   1.084       .  S
C3159      C3160   1.401       .  A
C3159      H3166   1.083       .  S
C3160      C3161   1.407       .  A
C3160      H3167   1.083       .  S
C3161      C3162   1.406       .  A
C3162      H3168   1.084       .  S
C3169      C3170   1.406       .  A
C3169      C3174   1.408       .  A
C3170      C3171   1.405       .  A
C3170      H3179   1.083       .  S
C3171      C3172   1.407       .  A
C3171      H3180   1.083       .  S
C3172      C3178   1.412       .  A
C3172      C3173   1.412       .  A
C3173      C3175   1.402       .  A
C3173      C3174   1.406       .  A
C3174      H3181   1.084       .  S
C3175      C3176   1.398       .  A
C3175      H3182   1.084       .  S
C3176      C3177   1.405       .  A
C3176      H3183   1.082       .  S
C3177      C3178   1.413       .  A
C3178      H3184   1.084       .  S
C3185      C3186   1.402       .  A
C3185      C3190   1.409       .  A
C3186      C3187   1.400       .  A
C3186      H3195   1.083       .  S
C3187      C3188   1.405       .  A
C3187      H3196   1.084       .  S
C3188      C3194   1.403       .  A
C3188      C3189   1.411       .  A
C3189      C3191   1.403       .  A
C3189      C3190   1.400       .  A
C3190      H3197   1.084       .  S
C3191      C3192   1.397       .  A
C3191      H3198   1.084       .  S
C3192      C3193   1.405       .  A
C3192      H3199   1.083       .  S
C3193      C3194   1.411       .  A
C3194      H3200   1.084       .  S
C3201      C3202   1.409       .  A
C3201      C3206   1.408       .  A
C3202      C3203   1.402       .  A
C3202      H3211   1.083       .  S
C3203      C3204   1.404       .  A
C3203      H3212   1.084       .  S
C3204      C3210   1.413       .  A
C3204      C3205   1.413       .  A
C3205      C3207   1.398       .  A
C3205      C3206   1.406       .  A
C3206      H3213   1.084       .  S
C3207      C3208   1.395       .  A
C3207      H3214   1.084       .  S
C3208      C3209   1.411       .  A
C3208      H3215   1.083       .  S
C3209      C3210   1.415       .  A
C3210      H3216   1.079       .  S
C3217      C3218   1.405       .  A
C3217      C3222   1.404       .  A
C3218      C3219   1.403       .  A
C3218      H3227   1.083       .  S
C3219      C3220   1.406       .  A
C3219      H3228   1.084       .  S
C3220      C3226   1.410       .  A
C3220      C3221   1.414       .  A
C3221      C3223   1.402       .  A
C3221      C3222   1.405       .  A
C3222      H3229   1.085       .  S
C3223      C3224   1.397       .  A
C3223      H3230   1.084       .  S
C3224      C3225   1.403       .  A
C3224      H3231   1.083       .  S
C3225      C3226   1.409       .  A
C3226      H3232   1.084       .  S
C3233      C3234   1.407       .  A
C3233      C3238   1.410       .  A
C3234      C3235   1.403       .  A
C3234      H3243   1.083       .  S
C3235      C3236   1.405       .  A
C3235      H3244   1.083       .  S
C3236      C3242   1.413       .  A
C3236      C3237   1.411       .  A
C3237      C3239   1.400       .  A
C3237      C3238   1.410       .  A
C3238      H3245   1.084       .  S
C3239      C3240   1.399       .  A
C3239      H3246   1.084       .  S
C3240      C3241   1.411       .  A
C3240      H3247   1.076       .  S
C3241      C3242   1.416       .  A
C3242      H3248   1.081       .  S
C3249      C3250   1.412       .  A
C3249      C3254   1.402       .  A
C3250      C3251   1.396       .  A
C3250      H3259   1.083       .  S
C3251      C3252   1.398       .  A
C3251      H3260   1.084       .  S
C3252      C3258   1.409       .  A
C3252      C3253   1.417       .  A
C3253      C3255   1.395       .  A
C3253      C3254   1.406       .  A
C3254      H3261   1.084       .  S
C3255      C3256   1.392       .  A
C3255      H3262   1.084       .  S
C3256      C3257   1.413       .  A
C3256      H3263   1.081       .  S
C3257      C3258   1.404       .  A
C3258      H3264   1.084       .  S
C3265      C3266   1.406       .  A
C3265      C3270   1.403       .  A
C3266      C3267   1.394       .  A
C3266      H3275   1.084       .  S
C3267      C3268   1.398       .  A
C3267      H3276   1.083       .  S
C3268      C3274   1.405       .  A
C3268      C3269   1.418       .  A
C3269      C3271   1.400       .  A
C3269      C3270   1.410       .  A
C3270      H3277   1.084       .  S
C3271      C3272   1.397       .  A
C3271      H3278   1.083       .  S
C3272      C3273   1.408       .  A
C3272      H3279   1.083       .  S
C3273      C3274   1.400       .  A
C3274      H3280   1.084       .  S
C3281      C3282   1.405       .  A
C3281      C3286   1.405       .  A
C3282      C3283   1.404       .  A
C3282      H3291   1.083       .  S
C3283      C3284   1.406       .  A
C3283      H3292   1.084       .  S
C3284      C3290   1.410       .  A
C3284      C3285   1.414       .  A
C3285      C3287   1.401       .  A
C3285      C3286   1.402       .  A
C3286      H3293   1.085       .  S
C3287      C3288   1.395       .  A
C3287      H3294   1.084       .  S
C3288      C3289   1.402       .  A
C3288      H3295   1.083       .  S
C3289      C3290   1.408       .  A
C3290      H3296   1.084       .  S
C3297      C3298   1.403       .  A
C3297      C3302   1.407       .  A
C3298      C3299   1.395       .  A
C3298      H3307   1.083       .  S
C3299      C3300   1.402       .  A
C3299      H3308   1.084       .  S
C3300      C3306   1.399       .  A
C3300      C3301   1.413       .  A
C3301      C3303   1.405       .  A
C3301      C3302   1.403       .  A
C3302      H3309   1.084       .  S
C3303      C3304   1.399       .  A
C3303      H3310   1.083       .  S
C3304      C3305   1.402       .  A
C3304      H3311   1.083       .  S
C3305      C3306   1.404       .  A
C3306      H3312   1.084       .  S
C3313      C3314   1.403       .  A
C3313      C3318   1.405       .  A
C3314      C3315   1.397       .  A
C3314      H3323   1.083       .  S
C3315      C3316   1.402       .  A
C3315      H3324   1.084       .  S
C3316      C3322   1.403       .  A
C3316      C3317   1.414       .  A
C3317      C3319   1.402       .  A
C3317      C3318   1.403       .  A
C3318      H3325   1.084       .  S
C3319      C3320   1.397       .  A
C3319      H3326   1.084       .  S
C3320      C3321   1.406       .  A
C3320      H3327   1.083       .  S
C3321      C3322   1.405       .  A
C3322      H3328   1.084       .  S
C3329      C3330   1.408       .  A
C3329      C3334   1.401       .  A
C3330      C3331   1.394       .  A
C3330      H3339   1.083       .  S
C3331      C3332   1.399       .  A
C3331      H3340   1.084       .  S
C3332      C3338   1.406       .  A
C3332      C3333   1.417       .  A
C3333      C3335   1.399       .  A
C3333      C3334   1.407       .  A
C3334      H3341   1.084       .  S
C3335      C3336   1.396       .  A
C3335      H3342   1.084       .  S
C3336      C3337   1.411       .  A
C3336      H3343   1.083       .  S
C3337      C3338   1.404       .  A
C3338      H3344   1.084       .  S
C3345      C3346   1.409       .  A
C3345      C3350   1.401       .  A
C3346      C3347   1.394       .  A
C3346      H3355   1.083       .  S
C3347      C3348   1.399       .  A
C3347      H3356   1.084       .  S
C3348      C3354   1.404       .  A
C3348      C3349   1.416       .  A
C3349      C3351   1.398       .  A
C3349      C3350   1.404       .  A
C3350      H3357   1.084       .  S
C3351      C3352   1.395       .  A
C3351      H3358   1.084       .  S
C3352      C3353   1.409       .  A
C3352      H3359   1.083       .  S
C3353      C3354   1.403       .  A
C3354      H3360   1.084       .  S
C3361      C3362   1.412       .  A
C3361      C3366   1.409       .  A
C3362      C3363   1.386       .  A
C3362      H3371   1.083       .  S
C3363      C3364   1.393       .  A
C3363      H3372   1.084       .  S
C3364      C3370   1.397       .  A
C3364      C3365   1.415       .  A
C3365      C3367   1.404       .  A
C3365      C3366   1.410       .  A
C3366      H3373   1.080       .  S
C3367      C3368   1.401       .  A
C3367      H3374   1.083       .  S
C3368      C3369   1.407       .  A
C3368      H3375   1.083       .  S
C3369      C3370   1.400       .  A
C3370      H3376   1.085       .  S
C3377      C3378   1.404       .  A
C3377      C3382   1.407       .  A
C3378      C3379   1.400       .  A
C3378      H3387   1.083       .  S
C3379      C3380   1.404       .  A
C3379      H3388   1.083       .  S
C3380      C3386   1.405       .  A
C3380      C3381   1.414       .  A
C3381      C3383   1.403       .  A
C3381      C3382   1.405       .  A
C3382      H3389   1.084       .  S
C3383      C3384   1.398       .  A
C3383      H3390   1.084       .  S
C3384      C3385   1.404       .  A
C3384      H3391   1.083       .  S
C3385      C3386   1.406       .  A
C3386      H3392   1.084       .  S
C3393      C3394   1.412       .  A
C3393      C3398   1.411       .  A
C3394      C3395   1.399       .  A
C3394      H3403   1.076       .  S
C3395      C3396   1.400       .  A
C3395      H3404   1.084       .  S
C3396      C3402   1.407       .  A
C3396      C3397   1.412       .  A
C3397      C3399   1.401       .  A
C3397      C3398   1.406       .  A
C3398      H3405   1.085       .  S
C3399      C3400   1.398       .  A
C3399      H3406   1.084       .  S
C3400      C3401   1.408       .  A
C3400      H3407   1.083       .  S
C3401      C3402   1.408       .  A
C3402      H3408   1.084       .  S
C3409      C3410   1.413       .  A
C3409      C3414   1.412       .  A
C3410      C3411   1.398       .  A
C3410      H3419   1.080       .  S
C3411      C3412   1.398       .  A
C3411      H3420   1.083       .  S
C3412      C3418   1.412       .  A
C3412      C3413   1.414       .  A
C3413      C3415   1.402       .  A
C3413      C3414   1.413       .  A
C3414      H3421   1.081       .  S
C3415      C3416   1.400       .  A
C3415      H3422   1.083       .  S
C3416      C3417   1.410       .  A
C3416      H3423   1.083       .  S
C3417      C3418   1.406       .  A
C3418      H3424   1.084       .  S
C3425      C3426   1.410       .  A
C3425      C3430   1.413       .  A
C3426      C3427   1.402       .  A
C3426      H3435   1.081       .  S
C3427      C3428   1.402       .  A
C3427      H3436   1.083       .  S
C3428      C3434   1.413       .  A
C3428      C3429   1.412       .  A
C3429      C3431   1.402       .  A
C3429      C3430   1.411       .  A
C3430      H3437   1.082       .  S
C3431      C3432   1.400       .  A
C3431      H3438   1.083   1_565  S
C3432      C3433   1.408       .  A
C3432      H3439   1.083   1_565  S
C3433      C3434   1.412       .  A
C3434      H3440   1.084       .  S
C3441      C3442   1.410       .  A
C3441      C3446   1.413       .  A
C3442      C3443   1.405       .  A
C3442      H3451   1.078       .  S
C3443      C3444   1.406       .  A
C3443      H3452   1.084       .  S
C3444      C3450   1.413       .  A
C3444      C3445   1.411       .  A
C3445      C3447   1.401       .  A
C3445      C3446   1.404       .  A
C3446      H3453   1.085       .  S
C3447      C3448   1.397       .  A
C3447      H3454   1.084       .  S
C3448      C3449   1.408       .  A
C3448      H3455   1.083       .  S
C3449      C3450   1.413       .  A
C3450      H3456   1.084       .  S
C3457      C3458   1.402       .  A
C3457      C3462   1.410       .  A
C3458      C3459   1.398       .  A
C3458      H3467   1.083       .  S
C3459      C3460   1.404       .  A
C3459      H3468   1.083       .  S
C3460      C3466   1.400       .  A
C3460      C3461   1.411       .  A
C3461      C3463   1.404       .  A
C3461      C3462   1.400       .  A
C3462      H3469   1.083       .  S
C3463      C3464   1.398       .  A
C3463      H3470   1.083       .  S
C3464      C3465   1.404       .  A
C3464      H3471   1.083       .  S
C3465      C3466   1.408       .  A
C3466      H3472   1.084       .  S
C3473      C3474   1.408       .  A
C3473      C3478   1.404       .  A
C3474      C3475   1.393       .  A
C3474      H3483   1.083       .  S
C3475      C3476   1.399       .  A
C3475      H3484   1.083       .  S
C3476      C3482   1.397       .  A
C3476      C3477   1.412       .  A
C3477      C3479   1.398       .  A
C3477      C3478   1.400       .  A
C3478      H3485   1.084       .  S
C3479      C3480   1.395       .  A
C3479      H3486   1.083       .  S
C3480      C3481   1.412       .  A
C3480      H3487   1.077       .  S
C3481      C3482   1.407       .  A
C3482      H3488   1.084       .  S
C3489      C3490   1.405       .  A
C3489      C3494   1.403       .  A
C3490      C3491   1.403       .  A
C3490      H3499   1.083       .  S
C3491      C3492   1.405       .  A
C3491      H3500   1.083       .  S
C3492      C3498   1.413       .  A
C3492      C3493   1.415       .  A
C3493      C3495   1.399       .  A
C3493      C3494   1.404       .  A
C3494      H3501   1.084       .  S
C3495      C3496   1.394       .  A
C3495      H3502   1.083       .  S
C3496      C3497   1.408       .  A
C3496      H3503   1.083       .  S
C3497      C3498   1.409       .  A
C3498      H3504   1.083       .  S
C3505      C3506   1.411       .  A
C3505      C3510   1.411       .  A
C3506      C3507   1.401       .  A
C3506      H3515   1.079       .  S
C3507      C3508   1.402       .  A
C3507      H3516   1.084       .  S
C3508      C3514   1.408       .  A
C3508      C3509   1.411       .  A
C3509      C3511   1.400       .  A
C3509      C3510   1.402       .  A
C3510      H3517   1.084       .  S
C3511      C3512   1.395       .  A
C3511      H3518   1.084       .  S
C3512      C3513   1.408       .  A
C3512      H3519   1.083       .  S
C3513      C3514   1.409       .  A
C3514      H3520   1.084       .  S
C3521      C3522   1.408       .  A
C3521      C3526   1.408       .  A
C3522      C3523   1.394       .  A
C3522      H3531   1.083       .  S
C3523      C3524   1.399       .  A
C3523      H3532   1.084       .  S
C3524      C3530   1.401       .  A
C3524      C3525   1.411       .  A
C3525      C3527   1.401       .  A
C3525      C3526   1.407       .  A
C3526      H3533   1.084       .  S
C3527      C3528   1.400       .  A
C3527      H3534   1.084       .  S
C3528      C3529   1.413       .  A
C3528      H3535   1.076       .  S
C3529      C3530   1.409       .  A
C3530      H3536   1.085       .  S
C3537      C3538   1.408       .  A
C3537      C3542   1.405       .  A
C3538      C3539   1.398       .  A
C3538      H3547   1.083       .  S
C3539      C3540   1.402       .  A
C3539      H3548   1.084       .  S
C3540      C3546   1.406       .  A
C3540      C3541   1.413       .  A
C3541      C3543   1.398       .  A
C3541      C3542   1.404       .  A
C3542      H3549   1.084       .  S
C3543      C3544   1.395       .  A
C3543      H3550   1.084       .  S
C3544      C3545   1.411       .  A
C3544      H3551   1.082       .  S
C3545      C3546   1.411       .  A
C3546      H3552   1.082       .  S
C3553      C3554   1.405       .  A
C3553      C3558   1.407       .  A
C3554      C3555   1.403       .  A
C3554      H3563   1.083       .  S
C3555      C3556   1.406       .  A
C3555      H3564   1.084       .  S
C3556      C3562   1.406       .  A
C3556      C3557   1.412       .  A
C3557      C3559   1.401       .  A
C3557      C3558   1.400       .  A
C3558      H3565   1.085       .  S
C3559      C3560   1.395       .  A
C3559      H3566   1.084       .  S
C3560      C3561   1.403       .  A
C3560      H3567   1.081       .  S
C3561      C3562   1.410       .  A
C3562      H3568   1.084       .  S
C3569      C3570   1.406       .  A
C3569      C3574   1.407       .  A
C3570      C3571   1.403       .  A
C3570      H3579   1.083       .  S
C3571      C3572   1.406       .  A
C3571      H3580   1.084       .  S
C3572      C3578   1.409       .  A
C3572      C3573   1.412       .  A
C3573      C3575   1.400       .  A
C3573      C3574   1.403       .  A
C3574      H3581   1.084       .  S
C3575      C3576   1.396       .  A
C3575      H3582   1.084       .  S
C3576      C3577   1.406       .  A
C3576      H3583   1.081       .  S
C3577      C3578   1.414       .  A
C3578      H3584   1.083       .  S
C3585      C3586   1.404       .  A
C3585      C3590   1.408       .  A
C3586      C3587   1.404       .  A
C3586      H3595   1.083       .  S
C3587      C3588   1.407       .  A
C3587      H3596   1.083       .  S
C3588      C3594   1.410       .  A
C3588      C3589   1.413       .  A
C3589      C3591   1.401       .  A
C3589      C3590   1.399       .  A
C3590      H3597   1.084       .  S
C3591      C3592   1.393       .  A
C3591      H3598   1.083       .  S
C3592      C3593   1.402       .  A
C3592      H3599   1.084       .  S
C3593      C3594   1.407       .  A
C3594      H3600   1.084       .  S
C3601      C3602   1.410       .  A
C3601      C3606   1.406       .  A
C3602      C3603   1.394       .  A
C3602      H3611   1.083       .  S
C3603      C3604   1.398       .  A
C3603      H3612   1.084       .  S
C3604      C3610   1.405       .  A
C3604      C3605   1.415       .  A
C3605      C3607   1.400       .  A
C3605      C3606   1.408       .  A
C3606      H3613   1.084       .  S
C3607      C3608   1.397       .  A
C3607      H3614   1.084       .  S
C3608      C3609   1.410       .  A
C3608      H3615   1.082       .  S
C3609      C3610   1.404       .  A
C3610      H3616   1.081       .  S
C3617      C3618   1.410       .  A
C3617      C3622   1.407       .  A
C3618      C3619   1.393       .  A
C3618      H3627   1.083       .  S
C3619      C3620   1.397       .  A
C3619      H3628   1.084       .  S
C3620      C3626   1.404       .  A
C3620      C3621   1.413       .  A
C3621      C3623   1.399       .  A
C3621      C3622   1.411       .  A
C3622      H3629   1.084       .  S
C3623      C3624   1.400       .  A
C3623      H3630   1.084       .  S
C3624      C3625   1.416       .  A
C3624      H3631   1.077       .  S
C3625      C3626   1.408       .  A
C3626      H3632   1.085       .  S
C3633      C3634   1.410       .  A
C3633      C3638   1.410       .  A
C3634      C3635   1.401       .  A
C3634      H3643   1.078       .  S
C3635      C3636   1.403       .  A
C3635      H3644   1.084       .  S
C3636      C3642   1.406       .  A
C3636      C3637   1.411       .  A
C3637      C3639   1.400       .  A
C3637      C3638   1.399       .  A
C3638      H3645   1.085       .  S
C3639      C3640   1.394       .  A
C3639      H3646   1.084       .  S
C3640      C3641   1.406       .  A
C3640      H3647   1.083       .  S
C3641      C3642   1.409       .  A
C3642      H3648   1.084       .  S
C3649      C3650   1.408       .  A
C3649      C3654   1.407       .  A
C3650      C3651   1.396       .  A
C3650      H3659   1.083       .  S
C3651      C3652   1.400       .  A
C3651      H3660   1.083       .  S
C3652      C3658   1.405       .  A
C3652      C3653   1.416       .  A
C3653      C3655   1.403       .  A
C3653      C3654   1.408       .  A
C3654      H3661   1.084       .  S
C3655      C3656   1.399       .  A
C3655      H3662   1.083       .  S
C3656      C3657   1.402       .  A
C3656      H3663   1.082       .  S
C3657      C3658   1.401       .  A
C3658      H3664   1.084       .  S
C3665      C3666   1.410       .  A
C3665      C3670   1.411       .  A
C3666      C3667   1.393       .  A
C3666      H3675   1.083       .  S
C3667      C3668   1.397       .  A
C3667      H3676   1.084       .  S
C3668      C3674   1.404       .  A
C3668      C3669   1.414       .  A
C3669      C3671   1.403       .  A
C3669      C3670   1.415       .  A
C3670      H3677   1.084       .  S
C3671      C3672   1.403       .  A
C3671      H3678   1.083       .  S
C3672      C3673   1.412       .  A
C3672      H3679   1.082       .  S
C3673      C3674   1.404       .  A
C3674      H3680   1.080       .  S
C3681      C3682   1.406       .  A
C3681      C3686   1.410       .  A
C3682      C3683   1.398       .  A
C3682      H3691   1.083       .  S
C3683      C3684   1.402       .  A
C3683      H3692   1.083       .  S
C3684      C3690   1.402       .  A
C3684      C3685   1.412       .  A
C3685      C3687   1.404       .  A
C3685      C3686   1.403       .  A
C3686      H3693   1.084       .  S
C3687      C3688   1.399       .  A
C3687      H3694   1.083       .  S
C3688      C3689   1.402       .  A
C3688      H3695   1.083       .  S
C3689      C3690   1.406       .  A
C3690      H3696   1.084       .  S
C3697      C3698   1.403       .  A
C3697      C3702   1.405       .  A
C3698      C3699   1.400       .  A
C3698      H3707   1.083       .  S
C3699      C3700   1.405       .  A
C3699      H3708   1.084       .  S
C3700      C3706   1.403       .  A
C3700      C3701   1.413       .  A
C3701      C3703   1.404       .  A
C3701      C3702   1.402       .  A
C3702      H3709   1.085       .  S
C3703      C3704   1.398       .  A
C3703      H3710   1.084       .  S
C3704      C3705   1.401       .  A
C3704      H3711   1.083       .  S
C3705      C3706   1.407       .  A
C3706      H3712   1.085       .  S
C3713      C3714   1.412       .  A
C3713      C3718   1.411       .  A
C3714      C3715   1.397       .  A
C3714      H3723   1.078       .  S
C3715      C3716   1.399       .  A
C3715      H3724   1.084       .  S
C3716      C3722   1.406       .  A
C3716      C3717   1.412       .  A
C3717      C3719   1.401       .  A
C3717      C3718   1.405       .  A
C3718      H3725   1.084       .  S
C3719      C3720   1.397       .  A
C3719      H3726   1.084       .  S
C3720      C3721   1.408       .  A
C3720      H3727   1.083       .  S
C3721      C3722   1.406       .  A
C3722      H3728   1.084       .  S
C3729      C3730   1.408       .  A
C3729      C3734   1.405       .  A
C3730      C3731   1.398       .  A
C3730      H3739   1.083   1_655  S
C3731      C3732   1.402       .  A
C3731      H3740   1.084       .  S
C3732      C3738   1.406       .  A
C3732      C3733   1.413       .  A
C3733      C3735   1.398       .  A
C3733      C3734   1.402       .  A
C3734      H3741   1.084       .  S
C3735      C3736   1.393       .  A
C3735      H3742   1.084       .  S
C3736      C3737   1.410       .  A
C3736      H3743   1.083       .  S
C3737      C3738   1.411       .  A
C3738      H3744   1.079       .  S
C3745      C3746   1.405       .  A
C3745      C3750   1.407       .  A
C3746      C3747   1.404       .  A
C3746      H3755   1.083       .  S
C3747      C3748   1.406       .  A
C3747      H3756   1.084       .  S
C3748      C3754   1.410       .  A
C3748      C3749   1.413       .  A
C3749      C3751   1.401       .  A
C3749      C3750   1.402       .  A
C3750      H3757   1.085       .  S
C3751      C3752   1.394       .  A
C3751      H3758   1.084       .  S
C3752      C3753   1.404       .  A
C3752      H3759   1.083       .  S
C3753      C3754   1.409       .  A
C3754      H3760   1.084       .  S
C3761      C3762   1.405       .  A
C3761      C3766   1.407       .  A
C3762      C3763   1.400       .  A
C3762      H3771   1.083       .  S
C3763      C3764   1.404       .  A
C3763      H3772   1.083       .  S
C3764      C3770   1.405       .  A
C3764      C3765   1.413       .  A
C3765      C3767   1.403       .  A
C3765      C3766   1.403       .  A
C3766      H3773   1.084       .  S
C3767      C3768   1.397       .  A
C3767      H3774   1.083       .  S
C3768      C3769   1.403       .  A
C3768      H3775   1.083       .  S
C3769      C3770   1.409       .  A
C3770      H3776   1.084       .  S
C3777      C3778   1.404       .  A
C3777      C3782   1.405       .  A
C3778      C3779   1.396       .  A
C3778      H3787   1.083       .  S
C3779      C3780   1.402       .  A
C3779      H3788   1.083       .  S
C3780      C3786   1.401       .  A
C3780      C3781   1.413       .  A
C3781      C3783   1.403       .  A
C3781      C3782   1.403       .  A
C3782      H3789   1.084       .  S
C3783      C3784   1.398       .  A
C3783      H3790   1.083       .  S
C3784      C3785   1.402       .  A
C3784      H3791   1.081       .  S
C3785      C3786   1.405       .  A
C3786      H3792   1.084       .  S
C3793      C3794   1.404       .  A
C3793      C3798   1.409       .  A
C3794      C3795   1.397       .  A
C3794      H3803   1.082       .  S
C3795      C3796   1.403       .  A
C3795      H3804   1.083       .  S
C3796      C3802   1.401       .  A
C3796      C3797   1.412       .  A
C3797      C3799   1.403       .  A
C3797      C3798   1.401       .  A
C3798      H3805   1.083       .  S
C3799      C3800   1.397       .  A
C3799      H3806   1.083       .  S
C3800      C3801   1.405       .  A
C3800      H3807   1.083       .  S
C3801      C3802   1.408       .  A
C3802      H3808   1.084       .  S
C3809      C3810   1.409       .  A
C3809      C3814   1.405       .  A
C3810      C3811   1.403       .  A
C3810      H3819   1.083       .  S
C3811      C3812   1.404       .  A
C3811      H3820   1.084       .  S
C3812      C3818   1.414       .  A
C3812      C3813   1.414       .  A
C3813      C3815   1.395       .  A
C3813      C3814   1.403       .  A
C3814      H3821   1.084       .  S
C3815      C3816   1.390       .  A
C3815      H3822   1.084       .  S
C3816      C3817   1.412       .  A
C3816      H3823   1.083       .  S
C3817      C3818   1.412       .  A
C3818      H3824   1.081       .  S
C3825      C3826   1.407       .  A
C3825      C3830   1.403       .  A
C3826      C3827   1.396       .  A
C3826      H3835   1.083       .  S
C3827      C3828   1.401       .  A
C3827      H3836   1.084       .  S
C3828      C3834   1.401       .  A
C3828      C3829   1.412       .  A
C3829      C3831   1.397       .  A
C3829      C3830   1.400       .  A
C3830      H3837   1.084       .  S
C3831      C3832   1.393       .  A
C3831      H3838   1.084       .  S
C3832      C3833   1.411       .  A
C3832      H3839   1.079       .  S
C3833      C3834   1.409       .  A
C3834      H3840   1.084       .  S
C3841      C3842   1.403       .  A
C3841      C3846   1.409       .  A
C3842      C3843   1.398       .  A
C3842      H3851   1.082       .  S
C3843      C3844   1.403       .  A
C3843      H3852   1.084       .  S
C3844      C3850   1.408       .  A
C3844      C3845   1.414       .  A
C3845      C3847   1.406       .  A
C3845      C3846   1.413       .  A
C3846      H3853   1.084       .  S
C3847      C3848   1.405       .  A
C3847      H3854   1.083       .  S
C3848      C3849   1.406       .  A
C3848      H3855   1.083       .  S
C3849      C3850   1.408       .  A
C3850      H3856   1.084       .  S
C3857      C3858   1.410       .  A
C3857      C3862   1.404       .  A
C3858      C3859   1.405       .  A
C3858      H3867   1.083       .  S
C3859      C3860   1.405       .  A
C3859      H3868   1.084       .  S
C3860      C3866   1.417       .  A
C3860      C3861   1.413       .  A
C3861      C3863   1.393       .  A
C3861      C3862   1.405       .  A
C3862      H3869   1.084       .  S
C3863      C3864   1.391       .  A
C3863      H3870   1.084       .  S
C3864      C3865   1.415       .  A
C3864      H3871   1.078       .  S
C3865      C3866   1.415       .  A
C3866      H3872   1.082       .  S
C3873      C3874   1.408       .  A
C3873      C3878   1.403       .  A
C3874      C3875   1.396       .  A
C3874      H3883   1.083       .  S
C3875      C3876   1.400       .  A
C3875      H3884   1.084       .  S
C3876      C3882   1.403       .  A
C3876      C3877   1.414       .  A
C3877      C3879   1.398       .  A
C3877      C3878   1.401       .  A
C3878      H3885   1.084       .  S
C3879      C3880   1.394       .  A
C3879      H3886   1.084       .  S
C3880      C3881   1.408       .  A
C3880      H3887   1.082       .  S
C3881      C3882   1.404       .  A
C3882      H3888   1.081       .  S
C3889      C3890   1.404       .  A
C3889      C3894   1.407       .  A
C3890      C3891   1.397       .  A
C3890      H3899   1.083       .  S
C3891      C3892   1.402       .  A
C3891      H3900   1.083       .  S
C3892      C3898   1.401       .  A
C3892      C3893   1.413       .  A
C3893      C3895   1.404       .  A
C3893      C3894   1.402       .  A
C3894      H3901   1.084       .  S
C3895      C3896   1.398       .  A
C3895      H3902   1.083       .  S
C3896      C3897   1.402       .  A
C3896      H3903   1.083       .  S
C3897      C3898   1.404       .  A
C3898      H3904   1.084       .  S
C3905      C3906   1.413       .  A
C3905      C3910   1.408       .  A
C3906      C3907   1.396       .  A
C3906      H3915   1.080       .  S
C3907      C3908   1.398       .  A
C3907      H3916   1.084       .  S
C3908      C3914   1.405       .  A
C3908      C3909   1.414       .  A
C3909      C3911   1.399       .  A
C3909      C3910   1.404       .  A
C3910      H3917   1.083       .  S
C3911      C3912   1.395       .  A
C3911      H3918   1.084       .  S
C3912      C3913   1.408       .  A
C3912      H3919   1.083       .  S
C3913      C3914   1.404       .  A
C3914      H3920   1.084       .  S
C3921      C3922   1.411       .  A
C3921      C3926   1.412       .  A
C3922      C3923   1.396       .  A
C3922      H3931   1.081       .  S
C3923      C3924   1.398       .  A
C3923      H3932   1.083       .  S
C3924      C3930   1.405       .  A
C3924      C3925   1.412       .  A
C3925      C3927   1.403       .  A
C3925      C3926   1.406       .  A
C3926      H3933   1.082       .  S
C3927      C3928   1.398       .  A
C3927      H3934   1.083       .  S
C3928      C3929   1.406       .  A
C3928      H3935   1.083       .  S
C3929      C3930   1.404       .  A
C3930      H3936   1.084       .  S
C3937      C3938   1.403       .  A
C3937      C3942   1.409       .  A
C3938      C3939   1.402       .  A
C3938      H3947   1.083       .  S
C3939      C3940   1.406       .  A
C3939      H3948   1.084       .  S
C3940      C3946   1.408       .  A
C3940      C3941   1.413       .  A
C3941      C3943   1.404       .  A
C3941      C3942   1.408       .  A
C3942      H3949   1.085       .  S
C3943      C3944   1.401       .  A
C3943      H3950   1.084       .  S
C3944      C3945   1.405       .  A
C3944      H3951   1.083       .  S
C3945      C3946   1.412       .  A
C3946      H3952   1.085       .  S
C3953      C3954   1.408       .  A
C3953      C3958   1.417       .  A
C3954      C3955   1.399       .  A
C3954      H3963   1.080       .  S
C3955      C3956   1.401       .  A
C3955      H3964   1.083       .  S
C3956      C3962   1.409       .  A
C3956      C3957   1.411       .  A
C3957      C3959   1.407       .  A
C3957      C3958   1.414       .  A
C3958      H3965   1.082       .  S
C3959      C3960   1.405       .  A
C3959      H3966   1.083       .  S
C3960      C3961   1.408       .  A
C3960      H3967   1.083       .  S
C3961      C3962   1.410       .  A
C3962      H3968   1.084       .  S
C3969      C3970   1.409       .  A
C3969      C3974   1.404       .  A
C3970      C3971   1.390       .  A
C3970      H3979   1.083       .  S
C3971      C3972   1.397       .  A
C3971      H3980   1.084       .  S
C3972      C3978   1.399       .  A
C3972      C3973   1.415       .  A
C3973      C3975   1.400       .  A
C3973      C3974   1.404       .  A
C3974      H3981   1.084       .  S
C3975      C3976   1.397       .  A
C3975      H3982   1.083       .  S
C3976      C3977   1.408       .  A
C3976      H3983   1.083       .  S
C3977      C3978   1.400       .  A
C3978      H3984   1.080       .  S
C3985      C3986   1.405       .  A
C3985      C3990   1.408       .  A
C3986      C3987   1.399       .  A
C3986      H3995   1.083       .  S
C3987      C3988   1.403       .  A
C3987      H3996   1.083       .  S
C3988      C3994   1.404       .  A
C3988      C3989   1.414       .  A
C3989      C3991   1.404       .  A
C3989      C3990   1.403       .  A
C3990      H3997   1.084       .  S
C3991      C3992   1.398       .  A
C3991      H3998   1.084       .  S
C3992      C3993   1.401       .  A
C3992      H3999   1.083       .  S
C3993      C3994   1.404       .  A
C3994      H4000   1.084       .  S
C4001      C4002   1.410       .  A
C4001      C4006   1.410       .  A
C4002      C4003   1.397       .  A
C4002      H4011   1.076       .  S
C4003      C4004   1.400       .  A
C4003      H4012   1.084       .  S
C4004      C4010   1.402       .  A
C4004      C4005   1.411       .  A
C4005      C4007   1.401       .  A
C4005      C4006   1.400       .  A
C4006      H4013   1.085       .  S
C4007      C4008   1.396       .  A
C4007      H4014   1.084       .  S
C4008      C4009   1.407       .  A
C4008      H4015   1.083       .  S
C4009      C4010   1.405       .  A
C4010      H4016   1.084       .  S
C4017      C4018   1.411       .  A
C4017      C4022   1.412       .  A
C4018      C4019   1.398       .  A
C4018      H4027   1.077       .  S
C4019      C4020   1.400       .  A
C4019      H4028   1.084       .  S
C4020      C4026   1.406       .  A
C4020      C4021   1.411       .  A
C4021      C4023   1.402       .  A
C4021      C4022   1.405       .  A
C4022      H4029   1.084       .  S
C4023      C4024   1.399       .  A
C4023      H4030   1.083       .  S
C4024      C4025   1.408       .  A
C4024      H4031   1.083       .  S
C4025      C4026   1.408       .  A
C4026      H4032   1.084       .  S
C4033      C4034   1.406       .  A
C4033      C4038   1.406       .  A
C4034      C4035   1.394       .  A
C4034      H4043   1.083       .  S
C4035      C4036   1.399       .  A
C4035      H4044   1.084       .  S
C4036      C4042   1.401       .  A
C4036      C4037   1.415       .  A
C4037      C4039   1.404       .  A
C4037      C4038   1.407       .  A
C4038      H4045   1.084       .  S
C4039      C4040   1.400       .  A
C4039      H4046   1.084       .  S
C4040      C4041   1.404       .  A
C4040      H4047   1.083       .  S
C4041      C4042   1.400       .  A
C4042      H4048   1.083       .  S
C4049      C4050   1.406       .  A
C4049      C4054   1.409       .  A
C4050      C4051   1.405       .  A
C4050      H4059   1.083       .  S
C4051      C4052   1.408       .  A
C4051      H4060   1.083       .  S
C4052      C4058   1.410       .  A
C4052      C4053   1.410       .  A
C4053      C4055   1.400       .  A
C4053      C4054   1.400       .  A
C4054      H4061   1.084       .  S
C4055      C4056   1.395       .  A
C4055      H4062   1.084       .  S
C4056      C4057   1.406       .  A
C4056      H4063   1.080       .  S
C4057      C4058   1.416       .  A
C4058      H4064   1.082       .  S
C4065      C4066   1.402       .  A
C4065      C4070   1.404       .  A
C4066      C4067   1.401       .  A
C4066      H4075   1.083       .  S
C4067      C4068   1.405       .  A
C4067      H4076   1.083       .  S
C4068      C4074   1.407       .  A
C4068      C4069   1.414       .  A
C4069      C4071   1.402       .  A
C4069      C4070   1.403       .  A
C4070      H4077   1.084       .  S
C4071      C4072   1.397       .  A
C4071      H4078   1.083       .  S
C4072      C4073   1.404       .  A
C4072      H4079   1.083       .  S
C4073      C4074   1.408       .  A
C4074      H4080   1.084       .  S
C4081      C4082   1.406       .  A
C4081      C4086   1.410       .  A
C4082      C4083   1.396       .  A
C4082      H4091   1.083       .  S
C4083      C4084   1.401       .  A
C4083      H4092   1.084       .  S
C4084      C4090   1.402       .  A
C4084      C4085   1.413       .  A
C4085      C4087   1.405       .  A
C4085      C4086   1.407       .  A
C4086      H4093   1.084       .  S
C4087      C4088   1.401       .  A
C4087      H4094   1.084       .  S
C4088      C4089   1.403       .  A
C4088      H4095   1.083       .  S
C4089      C4090   1.405       .  A
C4090      H4096   1.084       .  S
C4097      C4098   1.409       .  A
C4097      C4102   1.407       .  A
C4098      C4099   1.393       .  A
C4098      H4107   1.083       .  S
C4099      C4100   1.398       .  A
C4099      H4108   1.084       .  S
C4100      C4106   1.401       .  A
C4100      C4101   1.412       .  A
C4101      C4103   1.400       .  A
C4101      C4102   1.407       .  A
C4102      H4109   1.084       .  S
C4103      C4104   1.399       .  A
C4103      H4110   1.084       .  S
C4104      C4105   1.413       .  A
C4104      H4111   1.077       .  S
C4105      C4106   1.408       .  A
C4106      H4112   1.085       .  S
C4113      C4114   1.407       .  A
C4113      C4118   1.409       .  A
C4114      C4115   1.396       .  A
C4114      H4123   1.083       .  S
C4115      C4116   1.400       .  A
C4115      H4124   1.084       .  S
C4116      C4122   1.401       .  A
C4116      C4117   1.411       .  A
C4117      C4119   1.402       .  A
C4117      C4118   1.406       .  A
C4118      H4125   1.084       .  S
C4119      C4120   1.400       .  A
C4119      H4126   1.084       .  S
C4120      C4121   1.411       .  A
C4120      H4127   1.077       .  S
C4121      C4122   1.410       .  A
C4122      H4128   1.085       .  S
C4129      C4130   1.405       .  A
C4129      C4134   1.407       .  A
C4130      C4131   1.397       .  A
C4130      H4139   1.083       .  S
C4131      C4132   1.402       .  A
C4131      H4140   1.084       .  S
C4132      C4138   1.404       .  A
C4132      C4133   1.414       .  A
C4133      C4135   1.403       .  A
C4133      C4134   1.405       .  A
C4134      H4141   1.084       .  S
C4135      C4136   1.399       .  A
C4135      H4142   1.084       .  S
C4136      C4137   1.405       .  A
C4136      H4143   1.083       .  S
C4137      C4138   1.406       .  A
C4138      H4144   1.084       .  S
C4145      C4146   1.406       .  A
C4145      C4150   1.411       .  A
C4146      C4147   1.404       .  A
C4146      H4155   1.083       .  S
C4147      C4148   1.406       .  A
C4147      H4156   1.083       .  S
C4148      C4154   1.411       .  A
C4148      C4149   1.411       .  A
C4149      C4151   1.402       .  A
C4149      C4150   1.407       .  A
C4150      H4157   1.084       .  S
C4151      C4152   1.398       .  A
C4151      H4158   1.084       .  S
C4152      C4153   1.407       .  A
C4152      H4159   1.081       .  S
C4153      C4154   1.415       .  A
C4154      H4160   1.083       .  S
C4161      C4162   1.403       .  A
C4161      C4166   1.403       .  A
C4162      C4163   1.395       .  A
C4162      H4171   1.083       .  S
C4163      C4164   1.401       .  A
C4163      H4172   1.084       .  S
C4164      C4170   1.401       .  A
C4164      C4165   1.415       .  A
C4165      C4167   1.402       .  A
C4165      C4166   1.403       .  A
C4166      H4173   1.085       .  S
C4167      C4168   1.397       .  A
C4167      H4174   1.084       .  S
C4168      C4169   1.402       .  A
C4168      H4175   1.080       .  S
C4169      C4170   1.403       .  A
C4170      H4176   1.085       .  S
C4177      C4178   1.406       .  A
C4177      C4182   1.410       .  A
C4178      C4179   1.395       .  A
C4178      H4187   1.083       .  S
C4179      C4180   1.400       .  A
C4179      H4188   1.083       .  S
C4180      C4186   1.400       .  A
C4180      C4181   1.413       .  A
C4181      C4183   1.405       .  A
C4181      C4182   1.406       .  A
C4182      H4189   1.084       .  S
C4183      C4184   1.401       .  A
C4183      H4190   1.083       .  S
C4184      C4185   1.403       .  A
C4184      H4191   1.083       .  S
C4185      C4186   1.405       .  A
C4186      H4192   1.084       .  S
C4193      C4194   1.406       .  A
C4193      C4198   1.404       .  A
C4194      C4195   1.399       .  A
C4194      H4203   1.083       .  S
C4195      C4196   1.403       .  A
C4195      H4204   1.084       .  S
C4196      C4202   1.405       .  A
C4196      C4197   1.412       .  A
C4197      C4199   1.397       .  A
C4197      C4198   1.399       .  A
C4198      H4205   1.085       .  S
C4199      C4200   1.392       .  A
C4199      H4206   1.084       .  S
C4200      C4201   1.410       .  A
C4200      H4207   1.083       .  S
C4201      C4202   1.411       .  A
C4202      H4208   1.078       .  S
C4209      C4210   1.407       .  A
C4209      C4214   1.407       .  A
C4210      C4211   1.395       .  A
C4210      H4219   1.083       .  S
C4211      C4212   1.400       .  A
C4211      H4220   1.084       .  S
C4212      C4218   1.401       .  A
C4212      C4213   1.412       .  A
C4213      C4215   1.399       .  A
C4213      C4214   1.405       .  A
C4214      H4221   1.084       .  S
C4215      C4216   1.397       .  A
C4215      H4222   1.084       .  S
C4216      C4217   1.413       .  A
C4216      H4223   1.077       .  S
C4217      C4218   1.408       .  A
C4218      H4224   1.085       .  S
C4225      C4226   1.407       .  A
C4225      C4230   1.411       .  A
C4226      C4227   1.401       .  A
C4226      H4235   1.083       .  S
C4227      C4228   1.404       .  A
C4227      H4236   1.083       .  S
C4228      C4234   1.409       .  A
C4228      C4229   1.410       .  A
C4229      C4231   1.401       .  A
C4229      C4230   1.408       .  A
C4230      H4237   1.084       .  S
C4231      C4232   1.399       .  A
C4231      H4238   1.084       .  S
C4232      C4233   1.409       .  A
C4232      H4239   1.078       .  S
C4233      C4234   1.415       .  A
C4234      H4240   1.081       .  S
C4241      C4242   1.406       .  A
C4241      C4246   1.406       .  A
C4242      C4243   1.402       .  A
C4242      H4251   1.083       .  S
C4243      C4244   1.405       .  A
C4243      H4252   1.084       .  S
C4244      C4250   1.409       .  A
C4244      C4245   1.414       .  A
C4245      C4247   1.403       .  A
C4245      C4246   1.407       .  A
C4246      H4253   1.084       .  S
C4247      C4248   1.398       .  A
C4247      H4254   1.083       .  S
C4248      C4249   1.403       .  A
C4248      H4255   1.081       .  S
C4249      C4250   1.409       .  A
C4250      H4256   1.084       .  S
C4257      C4258   1.402       .  A
C4257      C4262   1.407       .  A
C4258      C4259   1.397       .  A
C4258      H4267   1.083       .  S
C4259      C4260   1.403       .  A
C4259      H4268   1.084       .  S
C4260      C4266   1.399       .  A
C4260      C4261   1.413       .  A
C4261      C4263   1.405       .  A
C4261      C4262   1.403       .  A
C4262      H4269   1.084       .  S
C4263      C4264   1.400       .  A
C4263      H4270   1.083       .  S
C4264      C4265   1.401       .  A
C4264      H4271   1.083       .  S
C4265      C4266   1.404       .  A
C4266      H4272   1.085       .  S
C4273      C4274   1.405       .  A
C4273      C4278   1.411       .  A
C4274      C4275   1.390       .  A
C4274      H4283   1.083       .  S
C4275      C4276   1.398       .  A
C4275      H4284   1.084       .  S
C4276      C4282   1.395       .  A
C4276      C4277   1.413       .  A
C4277      C4279   1.407       .  A
C4277      C4278   1.408       .  A
C4278      H4285   1.084       .  S
C4279      C4280   1.403       .  A
C4279      H4286   1.083       .  S
C4280      C4281   1.404       .  A
C4280      H4287   1.083       .  S
C4281      C4282   1.402       .  A
C4282      H4288   1.084       .  S
C4289      C4290   1.406       .  A
C4289      C4294   1.404       .  A
C4290      C4291   1.401       .  A
C4290      H4299   1.083       .  S
C4291      C4292   1.404       .  A
C4291      H4300   1.083       .  S
C4292      C4298   1.410       .  A
C4292      C4293   1.413       .  A
C4293      C4295   1.397       .  A
C4293      C4294   1.403       .  A
C4294      H4301   1.084       .  S
C4295      C4296   1.392       .  A
C4295      H4302   1.084       .  S
C4296      C4297   1.411       .  A
C4296      H4303   1.083       .  S
C4297      C4298   1.412       .  A
C4298      H4304   1.079       .  S
C4305      C4306   1.412       .  A
C4305      C4310   1.410       .  A
C4306      C4307   1.396       .  A
C4306      H4315   1.076       .  S
C4307      C4308   1.399       .  A
C4307      H4316   1.084       .  S
C4308      C4314   1.403       .  A
C4308      C4309   1.412       .  A
C4309      C4311   1.401       .  A
C4309      C4310   1.402       .  A
C4310      H4317   1.084       .  S
C4311      C4312   1.397       .  A
C4311      H4318   1.084       .  S
C4312      C4313   1.407       .  A
C4312      H4319   1.083       .  S
C4313      C4314   1.405       .  A
C4314      H4320   1.084       .  S
C4321      C4322   1.411       .  A
C4321      C4326   1.415       .  A
C4322      C4323   1.395       .  A
C4322      H4331   1.077       .  S
C4323      C4324   1.398       .  A
C4323      H4332   1.084       .  S
C4324      C4330   1.402       .  A
C4324      C4325   1.410       .  A
C4325      C4327   1.405       .  A
C4325      C4326   1.408       .  A
C4326      H4333   1.080       .  S
C4327      C4328   1.402       .  A
C4327      H4334   1.083       .  S
C4328      C4329   1.406       .  A
C4328      H4335   1.083       .  S
C4329      C4330   1.409       .  A
C4330      H4336   1.084       .  S
C4337      C4338   1.399       .  A
C4337      C4342   1.404       .  A
C4338      C4339   1.395       .  A
C4338      H4347   1.083       .  S
C4339      C4340   1.402       .  A
C4339      H4348   1.083       .  S
C4340      C4346   1.401       .  A
C4340      C4341   1.414       .  A
C4341      C4343   1.404       .  A
C4341      C4342   1.405       .  A
C4342      H4349   1.084       .  S
C4343      C4344   1.401       .  A
C4343      H4350   1.084       .  S
C4344      C4345   1.405       .  A
C4344      H4351   1.083       .  S
C4345      C4346   1.406       .  A
C4346      H4352   1.084       .  S
C4353      C4354   1.403       .  A
C4353      C4358   1.411       .  A
C4354      C4355   1.390       .  A
C4354      H4363   1.084       .  S
C4355      C4356   1.399       .  A
C4355      H4364   1.084       .  S
C4356      C4362   1.397       .  A
C4356      C4357   1.413       .  A
C4357      C4359   1.409       .  A
C4357      C4358   1.415       .  A
C4358      H4365   1.083       .  S
C4359      C4360   1.408       .  A
C4359      H4366   1.083       .  S
C4360      C4361   1.405       .  A
C4360      H4367   1.082       .  S
C4361      C4362   1.407       .  A
C4362      H4368   1.083       .  S
C4369      C4370   1.405       .  A
C4369      C4374   1.412       .  A
C4370      C4371   1.398       .  A
C4370      H4379   1.083       .  S
C4371      C4372   1.403       .  A
C4371      H4380   1.084       .  S
C4372      C4378   1.403       .  A
C4372      C4373   1.411       .  A
C4373      C4375   1.405       .  A
C4373      C4374   1.406       .  A
C4374      H4381   1.084       .  S
C4375      C4376   1.401       .  A
C4375      H4382   1.084       .  S
C4376      C4377   1.404       .  A
C4376      H4383   1.082       .  S
C4377      C4378   1.410       .  A
C4378      H4384   1.083       .  S
