geometry optimzed in LAMMPS
_audit_creation_date              2020-11-30 
_audit_creation_method            'lammps2cif' 
_symmetry_space_group_name_H-M    'P1' 
_symmetry_Int_Tables_number       1 
_symmetry_cell_setting            triclinic 
loop_ 
_symmetry_equiv_pos_as_xyz 
  x,y,z 
_cell_length_a                    37.06644710316597 
_cell_length_b                    37.15008530627639 
_cell_length_c                    26.24321749259461 
_cell_angle_alpha                 89.59114623029492 
_cell_angle_beta                  90.2046520969696 
_cell_angle_gamma                 120.04485971604495 
loop_ 
_atom_site_label 
_atom_site_type_symbol 
_atom_site_fract_x 
_atom_site_fract_y 
_atom_site_fract_z 
_atom_site_charge 
In1        In  0.50090578  0.16139771  0.41733245     1.36870
C2          C  0.50829569  0.10733976  0.46882003     0.77060
O3          O  0.95989177  0.10016204  0.37808348    -0.61390
O4          O  0.02370606  0.13653702  0.35918621    -0.52300
C5          C  0.50275545  0.21356209  0.35118638     0.69720
O6          O  0.46852664  0.18263381  0.36645327    -0.47160
C7          C  0.99811548  0.21034915  0.48525521     0.74430
O8          O  0.47844587  0.11398695  0.47627878    -0.59020
O9          O  0.03220703  0.21410036  0.46905493    -0.49110
O10         O  0.54167669  0.13999790  0.45540078    -0.55450
C11         C  0.99304425  0.10019995  0.36547040     0.84610
O12         O  0.03622672  0.21537173  0.36709364    -0.57340
O13         O  0.46540509  0.17855776  0.46862891    -0.60640
In14       In  0.49669965  0.39351510  0.16755006     1.36870
C15         C  0.99036434  0.44764700  0.21933210     0.77060
O16         O  0.53833115  0.45533977  0.12927312    -0.61390
O17         O  0.47481803  0.41916756  0.10918739    -0.52300
C18         C  0.49563127  0.34384009  0.09825406     0.69720
O19         O  0.02912179  0.37412843  0.11564619    -0.47160
C20         C  0.49782627  0.34218898  0.23265870     0.74430
O21         O  0.02039610  0.44097683  0.22565741    -0.59020
O22         O  0.46371533  0.33972013  0.21838758    -0.49110
O23         O  0.95673027  0.41503953  0.20683073    -0.55450
C24         C  0.50530587  0.45539975  0.11605978     0.84610
O25         O  0.46224243  0.34156205  0.11487120    -0.57340
O26         O  0.03140942  0.37349088  0.21646994    -0.60640
In27       In  0.13361369  0.15873617  0.33348121     1.36870
C28         C  0.07881994  0.09827307  0.38548977     0.77060
O29         O  0.07191991  0.13869258  0.29503919    -0.61390
O30         O  0.10813506  0.11129485  0.27564012    -0.52300
C31         C  0.18401286  0.21000808  0.26682237     0.69720
O32         O  0.15179235  0.21107136  0.28141525    -0.47160
C33         C  0.18574575  0.20861753  0.39945339     0.74430
O34         O  0.08580127  0.13503973  0.39148589    -0.59020
O35         O  0.18645258  0.17629088  0.38494216    -0.49110
O36         O  0.11130469  0.09701447  0.37299057    -0.55510
C37         C  0.07180029  0.10566741  0.28221275     0.84610
O38         O  0.18757007  0.17949279  0.28327836    -0.57340
O39         O  0.15555198  0.21271352  0.38287944    -0.60640
In40       In  0.36592387  0.39418239  0.08220461     1.36870
C41         C  0.41865792  0.45520540  0.13489477     0.77060
O42         O  0.42779359  0.41625982  0.04345138    -0.61390
O43         O  0.39056064  0.44290268  0.02498951    -0.52300
C44         C  0.31622046  0.34214482  0.01604067     0.69720
O45         O  0.34667533  0.33942355  0.03449371    -0.47160
C46         C  0.31498370  0.34249712  0.14818761     0.74430
O47         O  0.41260348  0.41884991  0.14164472    -0.59020
O48         O  0.31023476  0.37171839  0.12960262    -0.49110
O49         O  0.38571171  0.45530525  0.12129426    -0.55450
C50         C  0.42714058  0.44919496  0.03152901     0.84610
O51         O  0.31448779  0.37446304  0.02811453    -0.57340
O52         O  0.34838940  0.34275622  0.13589613    -0.60640
In53       In  0.36606377  0.02892504  0.00030695     1.36870
C54         C  0.42037916  0.02216929  0.44898481     0.77060
O55         O  0.42782796  0.06903907  0.03927433    -0.61390
O56         O  0.39050763  0.50538502  0.55844981    -0.52300
C57         C  0.31542991  0.03026294  0.06595819     0.69720
O58         O  0.34586589  0.06380918  0.04831418    -0.47160
C59         C  0.31486601  0.02674715  0.43284430     0.74430
O60         O  0.41469790  0.05290852  0.94336697    -0.59020
O61         O  0.31300798  0.99350497  0.44949515    -0.49110
O62         O  0.38720874  0.98880146  0.46111346    -0.55450
C63         C  0.42711393  0.53555590  0.05209761     0.84610
O64         O  0.31356973  0.99632597  0.05295510    -0.57340
O65         O  0.34579595  0.06103400  0.44767229    -0.60640
In66       In  0.13212743  0.02652148  0.25017839     1.36870
C67         C  0.07772638  0.53369434  0.19881209     0.77060
O68         O  0.07020742  0.98552929  0.28887897    -0.61390
O69         O  0.10723655  0.04864423  0.30899016    -0.52300
C70         C  0.18434866  0.03004842  0.31705769     0.69720
O71         O  0.15384081  0.99551733  0.30222763    -0.47160
C72         C  0.18189939  0.02389190  0.18415673     0.74430
O73         O  0.08368794  0.50327831  0.19298554    -0.59020
O74         O  0.18448803  0.05810731  0.19726327    -0.49110
O75         O  0.11092640  0.06701552  0.21066523    -0.55450
C76         C  0.07067222  0.01864772  0.30217459     0.84610
O77         O  0.18549959  0.06302600  0.30051846    -0.57340
O78         O  0.15113388  0.99061791  0.20192781    -0.60640
C79         C  0.46117309  0.48757088  0.11399280     0.00040
C80         C  0.49530293  0.48742659  0.13744589     0.00040
C81         C  0.45889918  0.49105650  0.05383162     0.00040
C82         C  0.45915536  0.52537580  0.03067145     0.00040
C83         C  0.00107982  0.49004227  0.19760293     0.00040
C84         C  0.03564892  0.52384417  0.22066252     0.00040
C85         C  0.03878924  0.02934220  0.28082936     0.00040
C86         C  0.03923920  0.06367888  0.30387530     0.00040
C87         C  0.46232813  0.03134218  0.47054275     0.00040
C88         C  0.49704078  0.06496808  0.44726561     0.00040
C89         C  0.00260068  0.06767786  0.38711716     0.00040
C90         C  0.03635106  0.06679485  0.36402101     0.00040
C91         C  0.29163249  0.05412293  0.36035537    -0.02370
C92         C  0.28148434  0.02596702  0.40135353     0.07310
C93         C  0.23933460  0.00016182  0.41573243    -0.02490
C94         C  0.20771144  0.00305426  0.38965344    -0.02490
C95         C  0.21784585  0.03121361  0.34866736     0.07440
C96         C  0.25996461  0.05691715  0.33416939    -0.02690
Br97       Br  0.27480029  0.09434508  0.27643622    -0.01230
Br98       Br  0.34879815  0.08709244  0.33775424    -0.01310
Br99       Br  0.15054656  0.96992615  0.41222539    -0.01270
Br100      Br  0.22423192  0.96219176  0.47299111    -0.01250
C101        C  0.22584535  0.04523544  0.10592316    -0.02370
C102        C  0.21442194  0.02345860  0.15258054     0.07310
C103        C  0.23701447  0.00485636  0.17148536    -0.02490
C104        C  0.27118122  0.00849345  0.14398124    -0.02490
C105        C  0.28254929  0.03021110  0.09729378     0.07440
C106        C  0.26005770  0.04894901  0.07847936    -0.02690
Br107      Br  0.27488049  0.07873503  0.01437488    -0.01230
Br108      Br  0.19294747  0.06784149  0.07815053    -0.01310
Br109      Br  0.30441767  0.98633931  0.17194003    -0.01270
Br110      Br  0.22268582  0.97581202  0.23606757    -0.01250
C111        C  0.25998138  0.31787220  0.21575732    -0.02370
C112        C  0.28238701  0.30883754  0.17966625     0.07310
C113        C  0.27169998  0.26703695  0.17132635    -0.02490
C114        C  0.23904846  0.23463073  0.19906097    -0.02490
C115        C  0.21667823  0.24366210  0.23530482     0.07440
C116        C  0.22744899  0.28553807  0.24367921    -0.02690
Br117      Br  0.19997133  0.30002376  0.29561966    -0.01230
Br118      Br  0.27482894  0.37483501  0.22915932    -0.01310
Br119      Br  0.22408038  0.17768226  0.18505714    -0.01270
Br120      Br  0.29958651  0.25298538  0.11958093    -0.01250
C121        C  0.24086602  0.29608494  0.49422508    -0.02370
C122        C  0.28316751  0.30831910  0.48546648     0.07310
C123        C  0.29315941  0.28593319  0.45043410    -0.02490
C124        C  0.26131792  0.25259339  0.42314071    -0.02490
C125        C  0.21909382  0.24083665  0.43142239     0.07440
C126        C  0.20911232  0.26222976  0.46773847    -0.02690
Br127      Br  0.15157274  0.24345943  0.48395039    -0.01230
Br128      Br  0.22517596  0.32358698  0.04459928    -0.01310
Br129      Br  0.27664523  0.22498866  0.37253617    -0.01270
Br130      Br  0.35061731  0.30173902  0.43759283    -0.01250
C131        C  0.47623559  0.23600836  0.27706076    -0.02370
C132        C  0.50321296  0.24658854  0.31925383     0.07310
C133        C  0.02800539  0.28871522  0.33351063    -0.02490
C134        C  0.02567246  0.32000206  0.30574966    -0.02490
C135        C  0.49851409  0.30936571  0.26375852     0.07440
C136        C  0.47382399  0.26726630  0.24940795    -0.02690
Br137      Br  0.43804126  0.25194481  0.19025497    -0.01230
Br138      Br  0.44391147  0.17878468  0.25536806    -0.01310
Br139      Br  0.05795176  0.37727612  0.32726231    -0.01270
Br140      Br  0.06339244  0.30397808  0.39299026    -0.01250
C141        C  0.03440741  0.27866153  0.03251719    -0.02370
C142        C  0.99679844  0.24288674  0.01745136     0.07310
C143        C  0.45844314  0.24133692  0.02792920    -0.02490
C144        C  0.45803479  0.27560452  0.05026605    -0.02490
C145        C  0.49583280  0.31143766  0.06482265     0.07440
C146        C  0.03407497  0.31337869  0.05293541    -0.02690
Br147      Br  0.08748050  0.36420064  0.06053769    -0.01230
Br148      Br  0.08755953  0.28067985  0.53021680    -0.01310
Br149      Br  0.40469455  0.27303006  0.05719961    -0.01270
Br150      Br  0.40511119  0.19177948  0.51516665    -0.01250
In151      In  0.50090644  0.16140530  0.91731448     1.36870
C152        C  0.50830029  0.10735149  0.96880633     0.77060
O153        O  0.95989082  0.10016683  0.87807262    -0.61390
O154        O  0.02370302  0.13654219  0.85916574    -0.52300
C155        C  0.50275034  0.21356871  0.85116978     0.69720
O156        O  0.46852295  0.18264021  0.86643978    -0.47160
C157        C  0.99812136  0.21035657  0.98524004     0.74430
O158        O  0.47845075  0.11399874  0.97626707    -0.59020
O159        O  0.03221178  0.21410832  0.96903447    -0.49110
O160        O  0.54168007  0.14000886  0.95538232    -0.55450
C161        C  0.99304293  0.10020513  0.86545690     0.84610
O162        O  0.03622295  0.21537922  0.86707315    -0.57340
O163        O  0.46540961  0.17856571  0.96861547    -0.60640
In164      In  0.49668514  0.39351890  0.66753429     1.36870
C165        C  0.99035251  0.44764932  0.71932290     0.77060
O166        O  0.53831983  0.45534476  0.62926316    -0.61390
O167        O  0.47480549  0.41917870  0.60917582    -0.52300
C168        C  0.49561831  0.34384223  0.59824056     0.69720
O169        O  0.02910789  0.37413453  0.61562816    -0.47160
C170        C  0.49781350  0.34219258  0.73264230     0.74430
O171        O  0.02038270  0.44097657  0.72564788    -0.59020
O172        O  0.46370206  0.33972294  0.71837169    -0.49110
O173        O  0.95671774  0.41504404  0.70681718    -0.55450
C174        C  0.50529633  0.45540914  0.61605150     0.84610
O175        O  0.46222865  0.34156273  0.61485733    -0.57340
O176        O  0.03139600  0.37349506  0.71645315    -0.60640
In177      In  0.13361503  0.15874553  0.83345868     1.36870
C178        C  0.07882317  0.09828770  0.88547528     0.77060
O179        O  0.07191920  0.13869696  0.79501970    -0.61390
O180        O  0.10813503  0.11129931  0.77562276    -0.52300
C181        C  0.18401226  0.21002603  0.76680341     0.69720
O182        O  0.15179142  0.21108659  0.78140142    -0.47160
C183        C  0.18574943  0.20861571  0.89943533     0.74430
O184        O  0.08580319  0.13505488  0.89146280    -0.59020
O185        O  0.18645341  0.17628946  0.88491563    -0.49110
O186        O  0.11130786  0.09702832  0.87297795    -0.55510
C187        C  0.07180007  0.10567118  0.78219754     0.84610
O188        O  0.18756996  0.17950915  0.78325146    -0.57340
O189        O  0.15555849  0.21271789  0.88286484    -0.60640
In190      In  0.36591877  0.39421459  0.58219419     1.36870
C191        C  0.41865631  0.45523077  0.63488890     0.77060
O192        O  0.42778616  0.41628912  0.54343665    -0.61390
O193        O  0.39056103  0.44294551  0.52499235    -0.52300
C194        C  0.31621686  0.34217217  0.51603168     0.69720
O195        O  0.34667499  0.33945626  0.53448363    -0.47160
C196        C  0.31497959  0.34252903  0.64817792     0.74430
O197        O  0.41259640  0.41887310  0.64163705    -0.59020
O198        O  0.31022819  0.37174864  0.62959197    -0.49110
O199        O  0.38571322  0.45533678  0.62128732    -0.55450
C200        C  0.42713904  0.44922900  0.53152332     0.84610
O201        O  0.31448087  0.37448900  0.52810359    -0.57340
O202        O  0.34838721  0.34279149  0.63588833    -0.60640
In203      In  0.36605893  0.02891549  0.50030794     1.36870
C204        C  0.42038296  0.02218129  0.94897880     0.77060
O205        O  0.42782068  0.06902783  0.53928059    -0.61390
O206        O  0.39047686  0.50532428  0.05843315    -0.52300
C207        C  0.31542625  0.03025690  0.56595759     0.69720
O208        O  0.34586361  0.06380223  0.54831390    -0.47160
C209        C  0.31486852  0.02675300  0.93284468     0.74430
O210        O  0.41469462  0.05289654  0.44336953    -0.59020
O211        O  0.31301271  0.99351185  0.94949555    -0.49110
O212        O  0.38721300  0.98881293  0.96110694    -0.55450
C213        C  0.42714844  0.53560829  0.55210857     0.84610
O214        O  0.31356355  0.99631878  0.55295437    -0.57340
O215        O  0.34579705  0.06104092  0.94767265    -0.60640
In216      In  0.13212786  0.02652198  0.75017841     1.36870
C217        C  0.07771745  0.53369626  0.69881308     0.77060
O218        O  0.07021058  0.98553501  0.78888680    -0.61390
O219        O  0.10724100  0.04865335  0.80898454    -0.52300
C220        C  0.18434878  0.03004855  0.81705751     0.69720
O221        O  0.15384037  0.99551743  0.80222836    -0.47160
C222        C  0.18189942  0.02389212  0.68415686     0.74430
O223        O  0.08367832  0.50327974  0.69298266    -0.59020
O224        O  0.18448802  0.05810770  0.69726265    -0.49110
O225        O  0.11092472  0.06701119  0.71065796    -0.55450
C226        C  0.07067626  0.01865533  0.80217551     0.84610
O227        O  0.18550015  0.06302616  0.80051769    -0.57340
O228        O  0.15113419  0.99061829  0.70192861    -0.60640
C229        C  0.46117435  0.48759254  0.61398995     0.00040
C230        C  0.49529872  0.48743829  0.63744233     0.00040
C231        C  0.45890541  0.49108499  0.55382969     0.00040
C232        C  0.45917605  0.52541245  0.53067353     0.00040
C233        C  0.00107147  0.49004709  0.69759903     0.00040
C234        C  0.03563981  0.52384592  0.72066223     0.00040
C235        C  0.03879138  0.02934606  0.78082812     0.00040
C236        C  0.03924092  0.06368437  0.80386708     0.00040
C237        C  0.46233267  0.03135363  0.97053386     0.00040
C238        C  0.49704467  0.06497886  0.94725498     0.00040
C239        C  0.00260299  0.06768642  0.88710677     0.00040
C240        C  0.03635436  0.06680525  0.86401156     0.00040
C241        C  0.29163342  0.05412544  0.86035433    -0.02370
C242        C  0.28148616  0.02597053  0.90135333     0.07310
C243        C  0.23933664  0.00016411  0.91573219    -0.02490
C244        C  0.20771272  0.00305493  0.88965281    -0.02490
C245        C  0.21784633  0.03121398  0.84866652     0.07440
C246        C  0.25996491  0.05691818  0.83416807    -0.02690
Br247      Br  0.27479968  0.09434509  0.77643392    -0.01230
Br248      Br  0.34879885  0.08709548  0.83775251    -0.01310
Br249      Br  0.15054798  0.96992505  0.91222461    -0.01270
Br250      Br  0.22423539  0.96219455  0.97299119    -0.01250
C251        C  0.22584532  0.04523467  0.60592326    -0.02370
C252        C  0.21442171  0.02345825  0.65258092     0.07310
C253        C  0.23701338  0.00485516  0.67148596    -0.02490
C254        C  0.27117928  0.00849069  0.64398155    -0.02490
C255        C  0.28254716  0.03020742  0.59729354     0.07440
C256        C  0.26005685  0.04894666  0.57847916    -0.02690
Br257      Br  0.27488046  0.07873248  0.51437455    -0.01230
Br258      Br  0.19294866  0.06784203  0.57815044    -0.01310
Br259      Br  0.30441500  0.98633578  0.67194060    -0.01270
Br260      Br  0.22268473  0.97581155  0.73606867    -0.01250
C261        C  0.25997429  0.31789622  0.71574543    -0.02370
C262        C  0.28238365  0.30886656  0.67965439     0.07310
C263        C  0.27170246  0.26706773  0.67131338    -0.02490
C264        C  0.23905224  0.23465815  0.69904564    -0.02490
C265        C  0.21667734  0.24368413  0.73528896     0.07440
C266        C  0.22744374  0.28555874  0.74366613    -0.02690
Br267      Br  0.19996410  0.30003844  0.79561035    -0.01230
Br268      Br  0.27481474  0.37485691  0.72914903    -0.01310
Br269      Br  0.22409434  0.17771267  0.68504007    -0.01270
Br270      Br  0.29959596  0.25302285  0.61956978    -0.01250
C271        C  0.24087050  0.29606711  0.99422586    -0.02370
C272        C  0.28317120  0.30829687  0.98547048     0.07310
C273        C  0.29316212  0.28591302  0.95043383    -0.02490
C274        C  0.26132041  0.25257989  0.92313247    -0.02490
C275        C  0.21909711  0.24082743  0.93141123     0.07440
C276        C  0.20911636  0.26221793  0.96773205    -0.02690
Br277      Br  0.15157699  0.24345256  0.98394002    -0.01230
Br278      Br  0.22517001  0.32360648  0.54459430    -0.01310
Br279      Br  0.27664672  0.22497930  0.87252088    -0.01270
Br280      Br  0.35061919  0.30171339  0.93759715    -0.01250
C281        C  0.47622638  0.23601304  0.77704593    -0.02370
C282        C  0.50320507  0.24659434  0.81923783     0.07310
C283        C  0.02799691  0.28872136  0.83349352    -0.02490
C284        C  0.02566235  0.32000733  0.80573244    -0.02490
C285        C  0.49850276  0.30936991  0.76374237     0.07440
C286        C  0.47381304  0.26727011  0.74939309    -0.02690
Br287      Br  0.43802865  0.25194698  0.69024162    -0.01230
Br288      Br  0.44390313  0.17878898  0.75535459    -0.01310
Br289      Br  0.05794137  0.37728179  0.82724334    -0.01270
Br290      Br  0.06338554  0.30398581  0.89297178    -0.01250
C291        C  0.03439807  0.27865560  0.53253000    -0.02370
C292        C  0.99679020  0.24288097  0.51746126     0.07310
C293        C  0.45843457  0.24133326  0.52792971    -0.02490
C294        C  0.45802521  0.27560319  0.55025834    -0.02490
C295        C  0.49582225  0.31143679  0.56481661     0.07440
C296        C  0.03406502  0.31337483  0.55294066    -0.02690
Br297      Br  0.08747151  0.36419445  0.56055063    -0.01230
Br298      Br  0.08757025  0.28068929  0.03018892    -0.01310
Br299      Br  0.40468536  0.27303131  0.55717845    -0.01270
Br300      Br  0.40511899  0.19178347  0.01516752    -0.01250
In301      In  0.50088905  0.66140281  0.41732342     1.36870
C302        C  0.50827988  0.60734774  0.46881094     0.77060
O303        O  0.95986802  0.60016702  0.37808022    -0.61390
O304        O  0.02367790  0.63654050  0.35916345    -0.52300
C305        C  0.50274621  0.71357181  0.35118253     0.69720
O306        O  0.46851519  0.68264694  0.36645006    -0.47160
C307        C  0.99810383  0.71035242  0.48524830     0.74430
O308        O  0.47843307  0.61399789  0.47627734    -0.59020
O309        O  0.03219406  0.71410138  0.46904679    -0.49110
O310        O  0.54166082  0.64000347  0.45538734    -0.55450
C311        C  0.99301831  0.60020426  0.36545907     0.84610
O312        O  0.03621567  0.71537734  0.36708939    -0.57340
O313        O  0.46539115  0.67856492  0.46861922    -0.60640
In314      In  0.49670737  0.89352284  0.16753298     1.36870
C315        C  0.99037610  0.94765065  0.21932381     0.77060
O316        O  0.53835266  0.95534955  0.12927069    -0.61390
O317        O  0.47484403  0.91918845  0.10916094    -0.52300
C318        C  0.49561721  0.84383697  0.09824003     0.69720
O319        O  0.02911324  0.87412195  0.11562563    -0.47160
C320        C  0.49783446  0.84219761  0.23263935     0.74430
O321        O  0.02040283  0.94097386  0.22565440    -0.59020
O322        O  0.46372389  0.83973187  0.21837327    -0.49110
O323        O  0.95674061  0.91504837  0.20681438    -0.55450
C324        C  0.50533274  0.95541694  0.11605010     0.84610
O325        O  0.46223358  0.84156825  0.11486133    -0.57340
O326        O  0.03141836  0.87349519  0.21644425    -0.60640
In327      In  0.13360325  0.65875831  0.33346314     1.36870
C328        C  0.07880440  0.59829742  0.38547479     0.77060
O329        O  0.07190653  0.63870931  0.29502200    -0.61390
O330        O  0.10812094  0.61130945  0.27562995    -0.52300
C331        C  0.18400621  0.71003512  0.26680499     0.69720
O332        O  0.15178731  0.71110030  0.28140111    -0.47160
C333        C  0.18574235  0.70863042  0.39944086     0.74430
O334        O  0.08578431  0.63506514  0.39145865    -0.59020
O335        O  0.18644186  0.67630126  0.38492383    -0.49110
O336        O  0.11129014  0.59703828  0.37298086    -0.55510
C337        C  0.07178582  0.60568246  0.28219965     0.84610
O338        O  0.18755818  0.67951559  0.28325577    -0.57340
O339        O  0.15555217  0.71273368  0.38286971    -0.60640
In340      In  0.36593856  0.89420518  0.08218969     1.36870
C341        C  0.41868323  0.95522025  0.13488515     0.77060
O342        O  0.42780757  0.91628152  0.04343234    -0.61390
O343        O  0.39058436  0.94294114  0.02499533    -0.52300
C344        C  0.31622994  0.84216578  0.01602466     0.69720
O345        O  0.34668475  0.83944353  0.03447605    -0.47160
C346        C  0.31499299  0.84252566  0.14817788     0.74430
O347        O  0.41262455  0.91886153  0.14162089    -0.59020
O348        O  0.31024955  0.87174975  0.12959080    -0.49110
O349        O  0.38573907  0.95532718  0.12128990    -0.55450
C350        C  0.42716228  0.94922319  0.03152222     0.84610
O351        O  0.31450305  0.87448756  0.02809575    -0.57340
O352        O  0.34839685  0.84278070  0.13588780    -0.60640
In353      In  0.36599378  0.52885715  0.00028508     1.36870
C354        C  0.42035318  0.52218699  0.44898004     0.77060
O355        O  0.42775076  0.56898328  0.03926274    -0.61390
O356        O  0.39053159  0.00537214  0.55845841    -0.52300
C357        C  0.31535526  0.53019074  0.06593476     0.69720
O358        O  0.34579098  0.56373722  0.04829110    -0.47160
C359        C  0.31483762  0.52676341  0.43284731     0.74430
O360        O  0.41463791  0.55285520  0.94335620    -0.59020
O361        O  0.31297844  0.49352093  0.44949903    -0.49110
O362        O  0.38718149  0.48881925  0.46110667    -0.55450
C363        C  0.42718048  0.03560660  0.05210912     0.84610
O364        O  0.31349696  0.49625443  0.05293221    -0.57340
O365        O  0.34576918  0.56105022  0.44767245    -0.60640
In366      In  0.13209965  0.52652666  0.25017563     1.36870
C367        C  0.07775158  0.03368838  0.19881771     0.77060
O368        O  0.07018333  0.48553975  0.28888490    -0.61390
O369        O  0.10721410  0.54865666  0.30898611    -0.52300
C370        C  0.18432449  0.53006329  0.31705347     0.69720
O371        O  0.15381284  0.49553027  0.30223549    -0.47160
C372        C  0.18185570  0.52386871  0.18415402     0.74430
O373        O  0.08371077  0.00327000  0.19299538    -0.59020
O374        O  0.18445612  0.55809119  0.19725144    -0.49110
O375        O  0.11090015  0.56702153  0.21066113    -0.55450
C376        C  0.07064957  0.51866001  0.30217359     0.84610
O377        O  0.18547916  0.56303938  0.30050091    -0.57340
O378        O  0.15108812  0.49060244  0.20193744    -0.60640
C379        C  0.46120090  0.98758742  0.11398950     0.00040
C380        C  0.49532936  0.98744109  0.13744292     0.00040
C381        C  0.45893180  0.99107929  0.05382861     0.00040
C382        C  0.45920637  0.02540930  0.03067334     0.00040
C383        C  0.00110239  0.99004953  0.19759998     0.00040
C384        C  0.03567463  0.02384260  0.22066608     0.00040
C385        C  0.03876746  0.52935335  0.28082454     0.00040
C386        C  0.03922241  0.56369443  0.30386507     0.00040
C387        C  0.46230228  0.53135444  0.47053364     0.00040
C388        C  0.49701867  0.56497567  0.44725521     0.00040
C389        C  0.00258034  0.56768683  0.38710694     0.00040
C390        C  0.03633546  0.56681261  0.36401071     0.00040
C391        C  0.29160534  0.55412953  0.36034768    -0.02370
C392        C  0.28145623  0.52598389  0.40135733     0.07310
C393        C  0.23930716  0.50018958  0.41574573    -0.02490
C394        C  0.20768557  0.50308308  0.38966447    -0.02490
C395        C  0.21782106  0.53123095  0.34866540     0.07440
C396        C  0.25993891  0.55692330  0.33415783    -0.02690
Br397      Br  0.27477409  0.59433437  0.27640734    -0.01230
Br398      Br  0.34876955  0.58708405  0.33773676    -0.01310
Br399      Br  0.15052213  0.46997307  0.41224949    -0.01270
Br400      Br  0.22420417  0.46223250  0.47301790    -0.01250
C401        C  0.22578817  0.54518954  0.10591012    -0.02370
C402        C  0.21436669  0.52341898  0.15257171     0.07310
C403        C  0.23694976  0.50480555  0.17147257    -0.02490
C404        C  0.27110476  0.50842384  0.14395890    -0.02490
C405        C  0.28247445  0.53013997  0.09726998     0.07440
C406        C  0.25999112  0.54888801  0.07845937    -0.02690
Br407      Br  0.27481204  0.57866807  0.01435074    -0.01230
Br408      Br  0.19290222  0.56781159  0.07814395    -0.01310
Br409      Br  0.30432308  0.48624547  0.17190705    -0.01270
Br410      Br  0.22262819  0.47577750  0.23606617    -0.01250
C411        C  0.25998223  0.81790127  0.21574050    -0.02370
C412        C  0.28239209  0.80886647  0.17965550     0.07310
C413        C  0.27170587  0.76706538  0.17132058    -0.02490
C414        C  0.23905102  0.73465935  0.19905223    -0.02490
C415        C  0.21667555  0.74369037  0.23528935     0.07440
C416        C  0.22744648  0.78556716  0.24366010    -0.02690
Br417      Br  0.19996530  0.80005442  0.29559387    -0.01230
Br418      Br  0.27482914  0.87486459  0.22913813    -0.01310
Br419      Br  0.22408762  0.67771132  0.18505370    -0.01270
Br420      Br  0.29959904  0.75301211  0.11958589    -0.01250
C421        C  0.24087551  0.79609025  0.49422259    -0.02370
C422        C  0.28317508  0.80831375  0.48546999     0.07310
C423        C  0.29316115  0.78592380  0.45043680    -0.02490
C424        C  0.26131627  0.75259043  0.42313773    -0.02490
C425        C  0.21909396  0.74084378  0.43141417     0.07440
C426        C  0.20911833  0.76224137  0.46773068    -0.02690
Br427      Br  0.15158116  0.74348575  0.48393651    -0.01230
Br428      Br  0.22519281  0.82362624  0.04459207    -0.01310
Br429      Br  0.27663715  0.72498089  0.37253271    -0.01270
Br430      Br  0.35061630  0.80171662  0.43760146    -0.01250
C431        C  0.47623367  0.73601771  0.27705137    -0.02370
C432        C  0.50320824  0.74659811  0.31924711     0.07310
C433        C  0.02800265  0.78872475  0.33350237    -0.02490
C434        C  0.02567518  0.82001199  0.30573581    -0.02490
C435        C  0.49851986  0.80937533  0.26374178     0.07440
C436        C  0.47382726  0.76727593  0.24939348    -0.02690
Br437      Br  0.43804737  0.75195481  0.19023791    -0.01230
Br438      Br  0.44390530  0.67879310  0.25536326    -0.01310
Br439      Br  0.05795665  0.87728680  0.32724456    -0.01270
Br440      Br  0.06338352  0.80398662  0.39298763    -0.01250
C441        C  0.03436626  0.77862837  0.03253062    -0.02370
C442        C  0.99675289  0.74285762  0.01746864     0.07310
C443        C  0.45840272  0.74131954  0.02794144    -0.02490
C444        C  0.45800445  0.77559637  0.05026563    -0.02490
C445        C  0.49580761  0.81142681  0.06481410     0.07440
C446        C  0.03404445  0.81335555  0.05293114    -0.02690
Br447      Br  0.08745674  0.86417309  0.06051266    -0.01230
Br448      Br  0.08755284  0.78067657  0.53020853    -0.01310
Br449      Br  0.40467209  0.77303910  0.05719178    -0.01270
Br450      Br  0.40510351  0.69178527  0.51517814    -0.01250
In451      In  0.50085014  0.66137111  0.91733372     1.36870
C452        C  0.50824224  0.60731387  0.96881604     0.77060
O453        O  0.95983732  0.60013645  0.87808546    -0.61390
O454        O  0.02364762  0.63651822  0.85917228    -0.52300
C455        C  0.50271163  0.71354235  0.85119272     0.69720
O456        O  0.46847906  0.68261867  0.86645900    -0.47160
C457        C  0.99806851  0.71032266  0.98526035     0.74430
O458        O  0.47838796  0.61395484  0.97627320    -0.59020
O459        O  0.03215704  0.71406658  0.96906076    -0.49110
O460        O  0.54162254  0.63997460  0.95540200    -0.55450
C461        C  0.99299088  0.60017972  0.86546444     0.84610
O462        O  0.03617932  0.71534456  0.86710017    -0.57340
O463        O  0.46535402  0.67853778  0.96862976    -0.60640
In464      In  0.49670358  0.89351600  0.66755266     1.36870
C465        C  0.99037474  0.94764797  0.71933726     0.77060
O466        O  0.53834455  0.95533893  0.62928078    -0.61390
O467        O  0.47483294  0.91917529  0.60918257    -0.52300
C468        C  0.49562809  0.84384206  0.59825457     0.69720
O469        O  0.02912090  0.87412391  0.61565210    -0.47160
C470        C  0.49781963  0.84218277  0.73265658     0.74430
O471        O  0.02040168  0.94097146  0.72566942    -0.59020
O472        O  0.46371148  0.83971955  0.71838420    -0.49110
O473        O  0.95673869  0.91504477  0.70683158    -0.55450
C474        C  0.50532319  0.95540463  0.61606295     0.84610
O475        O  0.46224106  0.84156913  0.61486982    -0.57340
O476        O  0.03140591  0.87348186  0.71646986    -0.60640
In477      In  0.13358379  0.65875282  0.83347852     1.36870
C478        C  0.07878403  0.59828607  0.88548265     0.77060
O479        O  0.07188818  0.63870357  0.79503541    -0.61390
O480        O  0.10810632  0.61130844  0.77563845    -0.52300
C481        C  0.18398836  0.71003076  0.76682099     0.69720
O482        O  0.15177026  0.71109716  0.78141818    -0.47160
C483        C  0.18572660  0.70862409  0.89945504     0.74430
O484        O  0.08575982  0.63505225  0.89147111    -0.59020
O485        O  0.18642321  0.67629358  0.88493763    -0.49110
O486        O  0.11127218  0.59703104  0.87298944    -0.55510
C487        C  0.07177021  0.60567891  0.78220824     0.84610
O488        O  0.18753866  0.67951008  0.78327088    -0.57340
O489        O  0.15553566  0.71272789  0.88288783    -0.60640
In490      In  0.36593125  0.89419840  0.58220904     1.36870
C491        C  0.41867776  0.95521589  0.63489932     0.77060
O492        O  0.42779938  0.91627048  0.54345184    -0.61390
O493        O  0.39057719  0.94292981  0.52500779    -0.52300
C494        C  0.31622727  0.84216153  0.51603994     0.69720
O495        O  0.34667955  0.83943731  0.53449635    -0.47160
C496        C  0.31498125  0.84251918  0.64819557     0.74430
O497        O  0.41261741  0.91885715  0.64164140    -0.59020
O498        O  0.31023963  0.87174374  0.62960627    -0.49110
O499        O  0.38573420  0.95532332  0.62130257    -0.55450
C500        C  0.42715482  0.94921158  0.53153645     0.84610
O501        O  0.31449907  0.87448257  0.52811133    -0.57340
O502        O  0.34838529  0.84277345  0.63590856    -0.60640
In503      In  0.36603238  0.52893186  0.50030838     1.36870
C504        C  0.42033268  0.52213406  0.94896914     0.77060
O505        O  0.42779690  0.56904217  0.53927767    -0.61390
O506        O  0.39054034  0.00538379  0.05845549    -0.52300
C507        C  0.31539872  0.53027153  0.56596155     0.69720
O508        O  0.34583671  0.56381718  0.54831937    -0.47160
C509        C  0.31479790  0.52668118  0.93281975     0.74430
O510        O  0.41467075  0.55291643  0.44337334    -0.59020
O511        O  0.31294109  0.49343989  0.94947229    -0.49110
O512        O  0.38716613  0.48875988  0.96109231    -0.55450
C513        C  0.42717223  0.03559489  0.55211510     0.84610
O514        O  0.31353732  0.49633431  0.55295700    -0.57340
O515        O  0.34572716  0.56096891  0.94764626    -0.60640
In516      In  0.13208865  0.52652524  0.75017573     1.36870
C517        C  0.07774918  0.03368257  0.69881650     0.77060
O518        O  0.07017123  0.48553726  0.78887970    -0.61390
O519        O  0.10720215  0.54865405  0.80898702    -0.52300
C520        C  0.18429622  0.53002660  0.81705550     0.69720
O521        O  0.15378445  0.49550115  0.80221747    -0.47160
C522        C  0.18186485  0.52390290  0.68415430     0.74430
O523        O  0.08370772  0.00326316  0.69299983    -0.59020
O524        O  0.18445778  0.55811789  0.69727280    -0.49110
O525        O  0.11089060  0.56702246  0.71066690    -0.55450
C526        C  0.07063766  0.51865696  0.80217199     0.84610
O527        O  0.18545715  0.56301122  0.80052547    -0.57340
O528        O  0.15109412  0.49062745  0.70191389    -0.60640
C529        C  0.46119535  0.98757965  0.61399976     0.00040
C530        C  0.49532337  0.98743212  0.63745166     0.00040
C531        C  0.45892494  0.99106879  0.55383919     0.00040
C532        C  0.45919936  0.02539802  0.53068218     0.00040
C533        C  0.00109994  0.99004504  0.69760745     0.00040
C534        C  0.03567381  0.02384002  0.72066671     0.00040
C535        C  0.03875557  0.52935033  0.78082418     0.00040
C536        C  0.03920777  0.56368827  0.80386828     0.00040
C537        C  0.46228423  0.53131752  0.97053153     0.00040
C538        C  0.49699468  0.56494714  0.94725674     0.00040
C539        C  0.00255846  0.56766510  0.88710921     0.00040
C540        C  0.03631777  0.56679970  0.86401363     0.00040
C541        C  0.29156973  0.55405750  0.86032923    -0.02370
C542        C  0.28141718  0.52590197  0.90132829     0.07310
C543        C  0.23926709  0.50010826  0.91571364    -0.02490
C544        C  0.20764887  0.50301622  0.88964376    -0.02490
C545        C  0.21778885  0.53117817  0.84865979     0.07440
C546        C  0.25990747  0.55686866  0.83415435    -0.02690
Br547      Br  0.27474996  0.59430500  0.77642899    -0.01230
Br548      Br  0.34873307  0.58700189  0.83771098    -0.01310
Br549      Br  0.15048486  0.46991073  0.91222780    -0.01270
Br550      Br  0.22415854  0.46213339  0.97296744    -0.01250
C551        C  0.22582242  0.54525880  0.60592944    -0.02370
C552        C  0.21438825  0.52347035  0.65257860     0.07310
C553        C  0.23696942  0.50485389  0.67147628    -0.02490
C554        C  0.27113746  0.50849068  0.64397536    -0.02490
C555        C  0.28251720  0.53022050  0.59729614     0.07440
C556        C  0.26003485  0.54897028  0.57848723    -0.02690
Br557      Br  0.27486803  0.57876741  0.51439032    -0.01230
Br558      Br  0.19293768  0.56788248  0.57816430    -0.01310
Br559      Br  0.30435884  0.48631755  0.67192881    -0.01270
Br560      Br  0.22262210  0.47578821  0.73604447    -0.01250
C561        C  0.25996743  0.81789619  0.71575485    -0.02370
C562        C  0.28237841  0.80886049  0.67967242     0.07310
C563        C  0.27169182  0.76705902  0.67133956    -0.02490
C564        C  0.23903517  0.73465361  0.69907010    -0.02490
C565        C  0.21665872  0.74368553  0.73530505     0.07440
C566        C  0.22743032  0.78556276  0.74367396    -0.02690
Br567      Br  0.19994837  0.80005169  0.79560486    -0.01230
Br568      Br  0.27481503  0.87485999  0.72915024    -0.01310
Br569      Br  0.22407099  0.67770516  0.68507292    -0.01270
Br570      Br  0.29958781  0.75300450  0.61960974    -0.01250
C571        C  0.24087470  0.79609254  0.99422328    -0.02370
C572        C  0.28317303  0.80831461  0.98546260     0.07310
C573        C  0.29315324  0.78591936  0.95043052    -0.02490
C574        C  0.26130400  0.75258343  0.92313910    -0.02490
C575        C  0.21908300  0.74083901  0.93142255     0.07440
C576        C  0.20911337  0.76224103  0.96773927    -0.02690
Br577      Br  0.15157889  0.74348765  0.98395650    -0.01230
Br578      Br  0.22518626  0.82361863  0.54459028    -0.01310
Br579      Br  0.27661707  0.72496704  0.87253473    -0.01270
Br580      Br  0.35060602  0.80170762  0.93758662    -0.01250
C581        C  0.47620519  0.73599605  0.77706210    -0.02370
C582        C  0.50317814  0.74657173  0.81925885     0.07310
C583        C  0.02797752  0.78869747  0.83351537    -0.02490
C584        C  0.02565495  0.81998832  0.80575093    -0.02490
C585        C  0.49850032  0.80935651  0.76375656     0.07440
C586        C  0.47380484  0.76725810  0.74940492    -0.02690
Br587      Br  0.43803126  0.75194359  0.69024394    -0.01230
Br588      Br  0.44387145  0.67877262  0.75537117    -0.01310
Br589      Br  0.05794400  0.87726180  0.82726251    -0.01270
Br590      Br  0.06336005  0.80395374  0.89299896    -0.01250
C591        C  0.03439376  0.77865666  0.53252287    -0.02370
C592        C  0.99678318  0.74288336  0.51745878     0.07310
C593        C  0.45842959  0.74133765  0.52793393    -0.02490
C594        C  0.45802491  0.77560834  0.55026626    -0.02490
C595        C  0.49582494  0.81143986  0.56482034     0.07440
C596        C  0.03406510  0.81337768  0.55293242    -0.02690
Br597      Br  0.08747208  0.86420069  0.56051845    -0.01230
Br598      Br  0.08751935  0.78063551  0.03022764    -0.01310
Br599      Br  0.40468784  0.77304109  0.55719602    -0.01270
Br600      Br  0.40507332  0.69176891  0.01519571    -0.01250
In601      In  0.00090578  0.16139771  0.41733245     1.36870
C602        C  0.00829569  0.10733976  0.46882003     0.77060
O603        O  0.45989177  0.10016203  0.37808348    -0.61390
O604        O  0.52370606  0.13653701  0.35918621    -0.52300
C605        C  0.00275545  0.21356209  0.35118638     0.69720
O606        O  0.96852664  0.18263381  0.36645327    -0.47160
C607        C  0.49811547  0.21034914  0.48525521     0.74430
O608        O  0.97844587  0.11398695  0.47627878    -0.59020
O609        O  0.53220702  0.21410036  0.46905493    -0.49110
O610        O  0.04167669  0.13999790  0.45540078    -0.55450
C611        C  0.49304425  0.10019995  0.36547040     0.84610
O612        O  0.53622671  0.21537173  0.36709364    -0.57340
O613        O  0.96540509  0.17855777  0.46862891    -0.60640
In614      In  0.99669965  0.39351510  0.16755006     1.36870
C615        C  0.49036434  0.44764700  0.21933210     0.77060
O616        O  0.03833115  0.45533977  0.12927312    -0.61390
O617        O  0.97481803  0.41916756  0.10918739    -0.52300
C618        C  0.99563127  0.34384009  0.09825406     0.69720
O619        O  0.52912178  0.37412842  0.11564620    -0.47160
C620        C  0.99782628  0.34218898  0.23265870     0.74430
O621        O  0.52039610  0.44097683  0.22565741    -0.59020
O622        O  0.96371534  0.33972013  0.21838758    -0.49110
O623        O  0.45673027  0.41503953  0.20683073    -0.55450
C624        C  0.00530587  0.45539975  0.11605978     0.84610
O625        O  0.96224244  0.34156205  0.11487120    -0.57340
O626        O  0.53140941  0.37349088  0.21646994    -0.60640
In627      In  0.63361369  0.15873617  0.33348121     1.36870
C628        C  0.57881994  0.09827307  0.38548977     0.77060
O629        O  0.57191991  0.13869259  0.29503919    -0.61390
O630        O  0.60813506  0.11129485  0.27564012    -0.52300
C631        C  0.68401286  0.21000808  0.26682237     0.69720
O632        O  0.65179235  0.21107136  0.28141525    -0.47160
C633        C  0.68574575  0.20861753  0.39945339     0.74430
O634        O  0.58580127  0.13503973  0.39148589    -0.59020
O635        O  0.68645258  0.17629088  0.38494216    -0.49110
O636        O  0.61130469  0.09701447  0.37299057    -0.55510
C637        C  0.57180029  0.10566742  0.28221275     0.84610
O638        O  0.68757007  0.17949279  0.28327836    -0.57340
O639        O  0.65555198  0.21271352  0.38287944    -0.60640
In640      In  0.86592387  0.39418240  0.08220461     1.36870
C641        C  0.91865792  0.45520540  0.13489477     0.77060
O642        O  0.92779359  0.41625982  0.04345138    -0.61390
O643        O  0.89056064  0.44290268  0.02498952    -0.52300
C644        C  0.81622046  0.34214482  0.01604067     0.69720
O645        O  0.84667533  0.33942355  0.03449372    -0.47160
C646        C  0.81498370  0.34249712  0.14818762     0.74430
O647        O  0.91260348  0.41884991  0.14164473    -0.59020
O648        O  0.81023477  0.37171839  0.12960262    -0.49110
O649        O  0.88571171  0.45530525  0.12129427    -0.55450
C650        C  0.92714058  0.44919496  0.03152901     0.84610
O651        O  0.81448779  0.37446304  0.02811453    -0.57340
O652        O  0.84838940  0.34275622  0.13589613    -0.60640
In653      In  0.86606377  0.02892504  0.00030696     1.36870
C654        C  0.92037916  0.02216929  0.44898481     0.77060
O655        O  0.92782796  0.06903907  0.03927433    -0.61390
O656        O  0.89050763  0.50538502  0.55844981    -0.52300
C657        C  0.81542991  0.03026294  0.06595820     0.69720
O658        O  0.84586589  0.06380918  0.04831418    -0.47160
C659        C  0.81486601  0.02674715  0.43284430     0.74430
O660        O  0.91469790  0.05290852  0.94336697    -0.59020
O661        O  0.81300798  0.99350497  0.44949515    -0.49110
O662        O  0.88720874  0.98880146  0.46111346    -0.55450
C663        C  0.92711393  0.53555590  0.05209761     0.84610
O664        O  0.81356973  0.99632597  0.05295510    -0.57340
O665        O  0.84579595  0.06103401  0.44767229    -0.60640
In666      In  0.63212743  0.02652148  0.25017839     1.36870
C667        C  0.57772638  0.53369434  0.19881210     0.77060
O668        O  0.57020742  0.98552929  0.28887897    -0.61390
O669        O  0.60723655  0.04864423  0.30899016    -0.52300
C670        C  0.68434866  0.03004843  0.31705769     0.69720
O671        O  0.65384081  0.99551733  0.30222763    -0.47160
C672        C  0.68189939  0.02389190  0.18415673     0.74430
O673        O  0.58368794  0.50327831  0.19298555    -0.59020
O674        O  0.68448803  0.05810732  0.19726327    -0.49110
O675        O  0.61092640  0.06701552  0.21066523    -0.55450
C676        C  0.57067222  0.01864773  0.30217459     0.84610
O677        O  0.68549959  0.06302601  0.30051846    -0.57340
O678        O  0.65113388  0.99061791  0.20192781    -0.60640
C679        C  0.96117309  0.48757088  0.11399281     0.00040
C680        C  0.99530293  0.48742659  0.13744589     0.00040
C681        C  0.95889918  0.49105650  0.05383162     0.00040
C682        C  0.95915536  0.52537580  0.03067145     0.00040
C683        C  0.50107982  0.49004227  0.19760293     0.00040
C684        C  0.53564891  0.52384416  0.22066252     0.00040
C685        C  0.53878924  0.02934220  0.28082936     0.00040
C686        C  0.53923920  0.06367888  0.30387530     0.00040
C687        C  0.96232813  0.03134218  0.47054275     0.00040
C688        C  0.99704078  0.06496808  0.44726560     0.00040
C689        C  0.50260068  0.06767786  0.38711716     0.00040
C690        C  0.53635106  0.06679485  0.36402101     0.00040
C691        C  0.79163249  0.05412294  0.36035537    -0.02370
C692        C  0.78148434  0.02596703  0.40135353     0.07310
C693        C  0.73933460  0.00016183  0.41573244    -0.02490
C694        C  0.70771144  0.00305427  0.38965344    -0.02490
C695        C  0.71784585  0.03121361  0.34866736     0.07440
C696        C  0.75996461  0.05691715  0.33416939    -0.02690
Br697      Br  0.77480029  0.09434508  0.27643622    -0.01230
Br698      Br  0.84879815  0.08709244  0.33775424    -0.01310
Br699      Br  0.65054656  0.96992616  0.41222540    -0.01270
Br700      Br  0.72423192  0.96219177  0.47299112    -0.01250
C701        C  0.72584535  0.04523544  0.10592316    -0.02370
C702        C  0.71442194  0.02345860  0.15258054     0.07310
C703        C  0.73701447  0.00485636  0.17148536    -0.02490
C704        C  0.77118122  0.00849345  0.14398124    -0.02490
C705        C  0.78254929  0.03021110  0.09729378     0.07440
C706        C  0.76005770  0.04894901  0.07847936    -0.02690
Br707      Br  0.77488049  0.07873503  0.01437488    -0.01230
Br708      Br  0.69294747  0.06784149  0.07815053    -0.01310
Br709      Br  0.80441767  0.98633931  0.17194004    -0.01270
Br710      Br  0.72268582  0.97581202  0.23606757    -0.01250
C711        C  0.75998139  0.31787220  0.21575733    -0.02370
C712        C  0.78238701  0.30883754  0.17966625     0.07310
C713        C  0.77169998  0.26703695  0.17132635    -0.02490
C714        C  0.73904845  0.23463073  0.19906096    -0.02490
C715        C  0.71667823  0.24366210  0.23530483     0.07440
C716        C  0.72744899  0.28553807  0.24367922    -0.02690
Br717      Br  0.69997135  0.30002376  0.29561968    -0.01230
Br718      Br  0.77482896  0.37483501  0.22915934    -0.01310
Br719      Br  0.72408037  0.17768226  0.18505713    -0.01270
Br720      Br  0.79958650  0.25298538  0.11958091    -0.01250
C721        C  0.74086602  0.29608494  0.49422508    -0.02370
C722        C  0.78316751  0.30831910  0.48546648     0.07310
C723        C  0.79315941  0.28593318  0.45043411    -0.02490
C724        C  0.76131792  0.25259339  0.42314072    -0.02490
C725        C  0.71909382  0.24083665  0.43142239     0.07440
C726        C  0.70911232  0.26222977  0.46773846    -0.02690
Br727      Br  0.65157274  0.24345945  0.48395038    -0.01230
Br728      Br  0.72517596  0.32358699  0.04459927    -0.01310
Br729      Br  0.77664522  0.22498864  0.37253618    -0.01270
Br730      Br  0.85061731  0.30173900  0.43759285    -0.01250
C731        C  0.97623559  0.23600837  0.27706077    -0.02370
C732        C  0.00321297  0.24658854  0.31925383     0.07310
C733        C  0.52800538  0.28871522  0.33351063    -0.02490
C734        C  0.52567245  0.32000206  0.30574966    -0.02490
C735        C  0.99851410  0.30936572  0.26375852     0.07440
C736        C  0.97382399  0.26726630  0.24940795    -0.02690
Br737      Br  0.93804126  0.25194481  0.19025497    -0.01230
Br738      Br  0.94391147  0.17878468  0.25536806    -0.01310
Br739      Br  0.55795175  0.37727611  0.32726232    -0.01270
Br740      Br  0.56339242  0.30397807  0.39299027    -0.01250
C741        C  0.53440741  0.27866153  0.03251718    -0.02370
C742        C  0.49679844  0.24288674  0.01745136     0.07310
C743        C  0.95844314  0.24133692  0.02792919    -0.02490
C744        C  0.95803479  0.27560452  0.05026605    -0.02490
C745        C  0.99583281  0.31143766  0.06482266     0.07440
C746        C  0.53407497  0.31337870  0.05293540    -0.02690
Br747      Br  0.58748049  0.36420065  0.06053767    -0.01230
Br748      Br  0.58755952  0.28067985  0.53021681    -0.01310
Br749      Br  0.90469456  0.27303007  0.05719961    -0.01270
Br750      Br  0.90511120  0.19177949  0.51516665    -0.01250
In751      In  0.00090644  0.16140530  0.91731448     1.36870
C752        C  0.00830029  0.10735149  0.96880633     0.77060
O753        O  0.45989082  0.10016683  0.87807262    -0.61390
O754        O  0.52370302  0.13654219  0.85916574    -0.52300
C755        C  0.00275034  0.21356872  0.85116978     0.69720
O756        O  0.96852295  0.18264021  0.86643978    -0.47160
C757        C  0.49812136  0.21035657  0.98524004     0.74430
O758        O  0.97845075  0.11399874  0.97626707    -0.59020
O759        O  0.53221179  0.21410832  0.96903447    -0.49110
O760        O  0.04168007  0.14000886  0.95538232    -0.55450
C761        C  0.49304293  0.10020513  0.86545690     0.84610
O762        O  0.53622294  0.21537922  0.86707315    -0.57340
O763        O  0.96540961  0.17856571  0.96861547    -0.60640
In764      In  0.99668514  0.39351890  0.66753429     1.36870
C765        C  0.49035251  0.44764931  0.71932290     0.77060
O766        O  0.03831984  0.45534476  0.62926316    -0.61390
O767        O  0.97480550  0.41917870  0.60917582    -0.52300
C768        C  0.99561832  0.34384224  0.59824057     0.69720
O769        O  0.52910788  0.37413452  0.61562816    -0.47160
C770        C  0.99781351  0.34219258  0.73264230     0.74430
O771        O  0.52038269  0.44097657  0.72564788    -0.59020
O772        O  0.96370207  0.33972295  0.71837170    -0.49110
O773        O  0.45671773  0.41504404  0.70681718    -0.55450
C774        C  0.00529634  0.45540914  0.61605150     0.84610
O775        O  0.96222865  0.34156273  0.61485733    -0.57340
O776        O  0.53139600  0.37349505  0.71645315    -0.60640
In777      In  0.63361504  0.15874553  0.83345868     1.36870
C778        C  0.57882318  0.09828770  0.88547528     0.77060
O779        O  0.57191920  0.13869696  0.79501970    -0.61390
O780        O  0.60813504  0.11129931  0.77562276    -0.52300
C781        C  0.68401226  0.21002603  0.76680342     0.69720
O782        O  0.65179142  0.21108658  0.78140141    -0.47160
C783        C  0.68574943  0.20861571  0.89943534     0.74430
O784        O  0.58580320  0.13505488  0.89146280    -0.59020
O785        O  0.68645341  0.17628946  0.88491564    -0.49110
O786        O  0.61130786  0.09702832  0.87297795    -0.55510
C787        C  0.57180007  0.10567118  0.78219754     0.84610
O788        O  0.68756997  0.17950915  0.78325147    -0.57340
O789        O  0.65555849  0.21271789  0.88286484    -0.60640
In790      In  0.86591877  0.39421459  0.58219419     1.36870
C791        C  0.91865631  0.45523077  0.63488890     0.77060
O792        O  0.92778617  0.41628912  0.54343665    -0.61390
O793        O  0.89056104  0.44294551  0.52499235    -0.52300
C794        C  0.81621687  0.34217217  0.51603168     0.69720
O795        O  0.84667500  0.33945626  0.53448363    -0.47160
C796        C  0.81497960  0.34252903  0.64817792     0.74430
O797        O  0.91259641  0.41887310  0.64163706    -0.59020
O798        O  0.81022819  0.37174863  0.62959197    -0.49110
O799        O  0.88571322  0.45533678  0.62128732    -0.55450
C800        C  0.92713904  0.44922900  0.53152332     0.84610
O801        O  0.81448088  0.37448900  0.52810359    -0.57340
O802        O  0.84838722  0.34279149  0.63588833    -0.60640
In803      In  0.86605893  0.02891549  0.50030794     1.36870
C804        C  0.92038296  0.02218129  0.94897880     0.77060
O805        O  0.92782068  0.06902783  0.53928059    -0.61390
O806        O  0.89047685  0.50532428  0.05843315    -0.52300
C807        C  0.81542625  0.03025690  0.56595759     0.69720
O808        O  0.84586361  0.06380223  0.54831390    -0.47160
C809        C  0.81486852  0.02675300  0.93284468     0.74430
O810        O  0.91469462  0.05289654  0.44336953    -0.59020
O811        O  0.81301271  0.99351185  0.94949555    -0.49110
O812        O  0.88721300  0.98881293  0.96110694    -0.55450
C813        C  0.92714844  0.53560829  0.55210857     0.84610
O814        O  0.81356355  0.99631878  0.55295437    -0.57340
O815        O  0.84579705  0.06104091  0.94767265    -0.60640
In816      In  0.63212786  0.02652198  0.75017841     1.36870
C817        C  0.57771745  0.53369625  0.69881307     0.77060
O818        O  0.57021058  0.98553501  0.78888681    -0.61390
O819        O  0.60724100  0.04865335  0.80898454    -0.52300
C820        C  0.68434878  0.03004855  0.81705751     0.69720
O821        O  0.65384037  0.99551743  0.80222836    -0.47160
C822        C  0.68189942  0.02389212  0.68415686     0.74430
O823        O  0.58367831  0.50327974  0.69298266    -0.59020
O824        O  0.68448802  0.05810770  0.69726265    -0.49110
O825        O  0.61092472  0.06701119  0.71065796    -0.55450
C826        C  0.57067626  0.01865533  0.80217551     0.84610
O827        O  0.68550015  0.06302616  0.80051769    -0.57340
O828        O  0.65113419  0.99061829  0.70192861    -0.60640
C829        C  0.96117435  0.48759254  0.61398995     0.00040
C830        C  0.99529872  0.48743829  0.63744234     0.00040
C831        C  0.95890541  0.49108499  0.55382969     0.00040
C832        C  0.95917605  0.52541245  0.53067353     0.00040
C833        C  0.50107147  0.49004709  0.69759903     0.00040
C834        C  0.53563981  0.52384592  0.72066223     0.00040
C835        C  0.53879138  0.02934606  0.78082812     0.00040
C836        C  0.53924092  0.06368437  0.80386708     0.00040
C837        C  0.96233267  0.03135363  0.97053387     0.00040
C838        C  0.99704467  0.06497886  0.94725498     0.00040
C839        C  0.50260299  0.06768642  0.88710677     0.00040
C840        C  0.53635437  0.06680525  0.86401156     0.00040
C841        C  0.79163342  0.05412543  0.86035432    -0.02370
C842        C  0.78148616  0.02597053  0.90135333     0.07310
C843        C  0.73933664  0.00016411  0.91573219    -0.02490
C844        C  0.70771272  0.00305493  0.88965281    -0.02490
C845        C  0.71784633  0.03121398  0.84866652     0.07440
C846        C  0.75996491  0.05691817  0.83416807    -0.02690
Br847      Br  0.77479968  0.09434508  0.77643391    -0.01230
Br848      Br  0.84879885  0.08709547  0.83775251    -0.01310
Br849      Br  0.65054798  0.96992505  0.91222462    -0.01270
Br850      Br  0.72423539  0.96219455  0.97299119    -0.01250
C851        C  0.72584532  0.04523467  0.60592326    -0.02370
C852        C  0.71442171  0.02345825  0.65258092     0.07310
C853        C  0.73701338  0.00485515  0.67148596    -0.02490
C854        C  0.77117927  0.00849069  0.64398155    -0.02490
C855        C  0.78254717  0.03020742  0.59729354     0.07440
C856        C  0.76005685  0.04894666  0.57847917    -0.02690
Br857      Br  0.77488047  0.07873248  0.51437456    -0.01230
Br858      Br  0.69294867  0.06784204  0.57815045    -0.01310
Br859      Br  0.80441500  0.98633577  0.67194059    -0.01270
Br860      Br  0.72268472  0.97581155  0.73606867    -0.01250
C861        C  0.75997429  0.31789621  0.71574542    -0.02370
C862        C  0.78238366  0.30886656  0.67965440     0.07310
C863        C  0.77170248  0.26706773  0.67131340    -0.02490
C864        C  0.73905227  0.23465815  0.69904566    -0.02490
C865        C  0.71667735  0.24368412  0.73528896     0.07440
C866        C  0.72744373  0.28555874  0.74366612    -0.02690
Br867      Br  0.69996408  0.30003843  0.79561032    -0.01230
Br868      Br  0.77481473  0.37485691  0.72914901    -0.01310
Br869      Br  0.72409438  0.17771267  0.68504011    -0.01270
Br870      Br  0.79959600  0.25302285  0.61956983    -0.01250
C871        C  0.74087050  0.29606712  0.99422586    -0.02370
C872        C  0.78317120  0.30829687  0.98547048     0.07310
C873        C  0.79316212  0.28591302  0.95043384    -0.02490
C874        C  0.76132041  0.25257988  0.92313248    -0.02490
C875        C  0.71909711  0.24082743  0.93141124     0.07440
C876        C  0.70911636  0.26221794  0.96773205    -0.02690
Br877      Br  0.65157699  0.24345258  0.98394001    -0.01230
Br878      Br  0.72517002  0.32360649  0.54459428    -0.01310
Br879      Br  0.77664672  0.22497929  0.87252090    -0.01270
Br880      Br  0.85061919  0.30171339  0.93759717    -0.01250
C881        C  0.97622639  0.23601304  0.77704593    -0.02370
C882        C  0.00320508  0.24659434  0.81923783     0.07310
C883        C  0.52799690  0.28872136  0.83349352    -0.02490
C884        C  0.52566233  0.32000733  0.80573245    -0.02490
C885        C  0.99850277  0.30936992  0.76374237     0.07440
C886        C  0.97381304  0.26727011  0.74939310    -0.02690
Br887      Br  0.93802865  0.25194698  0.69024162    -0.01230
Br888      Br  0.94390313  0.17878898  0.75535459    -0.01310
Br889      Br  0.55794135  0.37728178  0.82724335    -0.01270
Br890      Br  0.56338553  0.30398581  0.89297178    -0.01250
C891        C  0.53439806  0.27865560  0.53253000    -0.02370
C892        C  0.49679020  0.24288096  0.51746126     0.07310
C893        C  0.95843458  0.24133327  0.52792971    -0.02490
C894        C  0.95802522  0.27560320  0.55025834    -0.02490
C895        C  0.99582226  0.31143679  0.56481661     0.07440
C896        C  0.53406501  0.31337483  0.55294065    -0.02690
Br897      Br  0.58747150  0.36419445  0.56055061    -0.01230
Br898      Br  0.58757025  0.28068930  0.03018892    -0.01310
Br899      Br  0.90468537  0.27303131  0.55717845    -0.01270
Br900      Br  0.90511899  0.19178347  0.01516752    -0.01250
In901      In  0.00088905  0.66140281  0.41732342     1.36870
C902        C  0.00827989  0.60734774  0.46881094     0.77060
O903        O  0.45986802  0.60016702  0.37808023    -0.61390
O904        O  0.52367790  0.63654050  0.35916344    -0.52300
C905        C  0.00274620  0.71357181  0.35118253     0.69720
O906        O  0.96851518  0.68264693  0.36645006    -0.47160
C907        C  0.49810384  0.71035243  0.48524830     0.74430
O908        O  0.97843308  0.61399789  0.47627735    -0.59020
O909        O  0.53219406  0.71410137  0.46904680    -0.49110
O910        O  0.04166082  0.64000347  0.45538734    -0.55450
C911        C  0.49301831  0.60020426  0.36545907     0.84610
O912        O  0.53621568  0.71537734  0.36708939    -0.57340
O913        O  0.96539114  0.67856490  0.46861923    -0.60640
In914      In  0.99670737  0.89352284  0.16753298     1.36870
C915        C  0.49037611  0.94765065  0.21932381     0.77060
O916        O  0.03835266  0.95534955  0.12927069    -0.61390
O917        O  0.97484403  0.91918845  0.10916094    -0.52300
C918        C  0.99561720  0.84383696  0.09824004     0.69720
O919        O  0.52911325  0.87412195  0.11562563    -0.47160
C920        C  0.99783445  0.84219761  0.23263936     0.74430
O921        O  0.52040284  0.94097386  0.22565440    -0.59020
O922        O  0.96372389  0.83973186  0.21837327    -0.49110
O923        O  0.45674061  0.91504837  0.20681438    -0.55450
C924        C  0.00533274  0.95541694  0.11605010     0.84610
O925        O  0.96223358  0.84156824  0.11486133    -0.57340
O926        O  0.53141836  0.87349519  0.21644425    -0.60640
In927      In  0.63360325  0.65875831  0.33346314     1.36870
C928        C  0.57880440  0.59829742  0.38547479     0.77060
O929        O  0.57190652  0.63870931  0.29502200    -0.61390
O930        O  0.60812094  0.61130945  0.27562995    -0.52300
C931        C  0.68400621  0.71003512  0.26680498     0.69720
O932        O  0.65178730  0.71110031  0.28140111    -0.47160
C933        C  0.68574235  0.70863042  0.39944085     0.74430
O934        O  0.58578431  0.63506514  0.39145865    -0.59020
O935        O  0.68644186  0.67630126  0.38492383    -0.49110
O936        O  0.61129013  0.59703828  0.37298085    -0.55510
C937        C  0.57178581  0.60568246  0.28219965     0.84610
O938        O  0.68755817  0.67951559  0.28325576    -0.57340
O939        O  0.65555216  0.71273368  0.38286971    -0.60640
In940      In  0.86593855  0.89420518  0.08218969     1.36870
C941        C  0.91868323  0.95522025  0.13488515     0.77060
O942        O  0.92780756  0.91628151  0.04343234    -0.61390
O943        O  0.89058435  0.94294114  0.02499533    -0.52300
C944        C  0.81622994  0.84216578  0.01602466     0.69720
O945        O  0.84668475  0.83944353  0.03447605    -0.47160
C946        C  0.81499298  0.84252566  0.14817788     0.74430
O947        O  0.91262455  0.91886152  0.14162089    -0.59020
O948        O  0.81024955  0.87174975  0.12959080    -0.49110
O949        O  0.88573907  0.95532718  0.12128990    -0.55450
C950        C  0.92716228  0.94922319  0.03152222     0.84610
O951        O  0.81450305  0.87448756  0.02809575    -0.57340
O952        O  0.84839684  0.84278069  0.13588780    -0.60640
In953      In  0.86599378  0.52885715  0.00028509     1.36870
C954        C  0.92035318  0.52218699  0.44898004     0.77060
O955        O  0.92775076  0.56898327  0.03926275    -0.61390
O956        O  0.89053158  0.00537215  0.55845840    -0.52300
C957        C  0.81535526  0.53019074  0.06593476     0.69720
O958        O  0.84579097  0.56373722  0.04829110    -0.47160
C959        C  0.81483762  0.52676341  0.43284730     0.74430
O960        O  0.91463791  0.55285520  0.94335621    -0.59020
O961        O  0.81297844  0.49352093  0.44949903    -0.49110
O962        O  0.88718149  0.48881925  0.46110667    -0.55450
C963        C  0.92718048  0.03560660  0.05210912     0.84610
O964        O  0.81349695  0.49625443  0.05293221    -0.57340
O965        O  0.84576918  0.56105022  0.44767245    -0.60640
In966      In  0.63209965  0.52652666  0.25017564     1.36870
C967        C  0.57775158  0.03368838  0.19881771     0.77060
O968        O  0.57018333  0.48553975  0.28888490    -0.61390
O969        O  0.60721410  0.54865666  0.30898612    -0.52300
C970        C  0.68432449  0.53006329  0.31705348     0.69720
O971        O  0.65381284  0.49553027  0.30223549    -0.47160
C972        C  0.68185569  0.52386871  0.18415403     0.74430
O973        O  0.58371077  0.00327000  0.19299538    -0.59020
O974        O  0.68445612  0.55809119  0.19725144    -0.49110
O975        O  0.61090015  0.56702153  0.21066113    -0.55450
C976        C  0.57064957  0.51866001  0.30217359     0.84610
O977        O  0.68547916  0.56303937  0.30050092    -0.57340
O978        O  0.65108812  0.49060244  0.20193745    -0.60640
C979        C  0.96120090  0.98758742  0.11398950     0.00040
C980        C  0.99532935  0.98744108  0.13744292     0.00040
C981        C  0.95893180  0.99107929  0.05382861     0.00040
C982        C  0.95920637  0.02540929  0.03067334     0.00040
C983        C  0.50110239  0.99004953  0.19759998     0.00040
C984        C  0.53567463  0.02384260  0.22066608     0.00040
C985        C  0.53876746  0.52935335  0.28082454     0.00040
C986        C  0.53922240  0.56369443  0.30386507     0.00040
C987        C  0.96230228  0.53135444  0.47053364     0.00040
C988        C  0.99701867  0.56497567  0.44725522     0.00040
C989        C  0.50258034  0.56768683  0.38710694     0.00040
C990        C  0.53633545  0.56681261  0.36401071     0.00040
C991        C  0.79160533  0.55412953  0.36034769    -0.02370
C992        C  0.78145624  0.52598389  0.40135733     0.07310
C993        C  0.73930716  0.50018958  0.41574572    -0.02490
C994        C  0.70768557  0.50308308  0.38966447    -0.02490
C995        C  0.71782106  0.53123094  0.34866540     0.07440
C996        C  0.75993891  0.55692330  0.33415784    -0.02690
Br997      Br  0.77477409  0.59433438  0.27640735    -0.01230
Br998      Br  0.84876955  0.58708406  0.33773677    -0.01310
Br999      Br  0.65052213  0.46997306  0.41224949    -0.01270
Br1000     Br  0.72420417  0.46223249  0.47301789    -0.01250
C1001       C  0.72578816  0.54518954  0.10591013    -0.02370
C1002       C  0.71436669  0.52341898  0.15257171     0.07310
C1003       C  0.73694976  0.50480555  0.17147258    -0.02490
C1004       C  0.77110476  0.50842384  0.14395891    -0.02490
C1005       C  0.78247445  0.53013997  0.09726998     0.07440
C1006       C  0.75999112  0.54888800  0.07845937    -0.02690
Br1007     Br  0.77481204  0.57866807  0.01435074    -0.01230
Br1008     Br  0.69290221  0.56781158  0.07814395    -0.01310
Br1009     Br  0.80432308  0.48624547  0.17190705    -0.01270
Br1010     Br  0.72262819  0.47577750  0.23606617    -0.01250
C1011       C  0.75998223  0.81790127  0.21574050    -0.02370
C1012       C  0.78239208  0.80886647  0.17965549     0.07310
C1013       C  0.77170585  0.76706538  0.17132056    -0.02490
C1014       C  0.73905100  0.73465935  0.19905221    -0.02490
C1015       C  0.71667554  0.74369038  0.23528934     0.07440
C1016       C  0.72744648  0.78556716  0.24366010    -0.02690
Br1017     Br  0.69996532  0.80005442  0.29559390    -0.01230
Br1018     Br  0.77482916  0.87486460  0.22913816    -0.01310
Br1019     Br  0.72408757  0.67771132  0.18505366    -0.01270
Br1020     Br  0.79959899  0.75301210  0.11958585    -0.01250
C1021       C  0.74087550  0.79609025  0.49422260    -0.02370
C1022       C  0.78317507  0.80831375  0.48546998     0.07310
C1023       C  0.79316115  0.78592380  0.45043679    -0.02490
C1024       C  0.76131627  0.75259044  0.42313772    -0.02490
C1025       C  0.71909396  0.74084378  0.43141417     0.07440
C1026       C  0.70911832  0.76224137  0.46773068    -0.02690
Br1027     Br  0.65158116  0.74348573  0.48393653    -0.01230
Br1028     Br  0.72519281  0.82362623  0.04459207    -0.01310
Br1029     Br  0.77663715  0.72498091  0.37253269    -0.01270
Br1030     Br  0.85061630  0.80171664  0.43760144    -0.01250
C1031       C  0.97623367  0.73601771  0.27705137    -0.02370
C1032       C  0.00320823  0.74659810  0.31924712     0.07310
C1033       C  0.52800266  0.78872476  0.33350236    -0.02490
C1034       C  0.52567519  0.82001199  0.30573580    -0.02490
C1035       C  0.99851986  0.80937533  0.26374178     0.07440
C1036       C  0.97382725  0.76727593  0.24939348    -0.02690
Br1037     Br  0.93804738  0.75195481  0.19023791    -0.01230
Br1038     Br  0.94390530  0.67879310  0.25536325    -0.01310
Br1039     Br  0.55795667  0.87728680  0.32724455    -0.01270
Br1040     Br  0.56338354  0.80398663  0.39298762    -0.01250
C1041       C  0.53436627  0.77862838  0.03253061    -0.02370
C1042       C  0.49675290  0.74285762  0.01746865     0.07310
C1043       C  0.95840271  0.74131955  0.02794142    -0.02490
C1044       C  0.95800444  0.77559637  0.05026562    -0.02490
C1045       C  0.99580760  0.81142680  0.06481411     0.07440
C1046       C  0.53404446  0.81335556  0.05293113    -0.02690
Br1047     Br  0.58745674  0.86417311  0.06051262    -0.01230
Br1048     Br  0.58755286  0.78067662  0.53020846    -0.01310
Br1049     Br  0.90467208  0.77303911  0.05719176    -0.01270
Br1050     Br  0.90510350  0.69178530  0.51517805    -0.01250
In1051     In  0.00085013  0.66137111  0.91733372     1.36870
C1052       C  0.00824224  0.60731387  0.96881604     0.77060
O1053       O  0.45983733  0.60013646  0.87808546    -0.61390
O1054       O  0.52364763  0.63651822  0.85917228    -0.52300
C1055       C  0.00271161  0.71354234  0.85119271     0.69720
O1056       O  0.96847904  0.68261866  0.86645900    -0.47160
C1057       C  0.49806852  0.71032266  0.98526036     0.74430
O1058       O  0.97838795  0.61395484  0.97627320    -0.59020
O1059       O  0.53215705  0.71406658  0.96906078    -0.49110
O1060       O  0.04162254  0.63997460  0.95540199    -0.55450
C1061       C  0.49299089  0.60017972  0.86546444     0.84610
O1062       O  0.53617934  0.71534456  0.86710017    -0.57340
O1063       O  0.96535400  0.67853776  0.96862977    -0.60640
In1064     In  0.99670357  0.89351600  0.66755266     1.36870
C1065       C  0.49037475  0.94764797  0.71933726     0.77060
O1066       O  0.03834455  0.95533892  0.62928078    -0.61390
O1067       O  0.97483293  0.91917528  0.60918257    -0.52300
C1068       C  0.99562808  0.84384205  0.59825458     0.69720
O1069       O  0.52912090  0.87412391  0.61565210    -0.47160
C1070       C  0.99781961  0.84218277  0.73265658     0.74430
O1071       O  0.52040169  0.94097146  0.72566942    -0.59020
O1072       O  0.96371146  0.83971955  0.71838420    -0.49110
O1073       O  0.45673869  0.91504477  0.70683158    -0.55450
C1074       C  0.00532318  0.95540463  0.61606295     0.84610
O1075       O  0.96224106  0.84156913  0.61486983    -0.57340
O1076       O  0.53140592  0.87348186  0.71646985    -0.60640
In1077     In  0.63358379  0.65875282  0.83347852     1.36870
C1078       C  0.57878403  0.59828606  0.88548265     0.77060
O1079       O  0.57188818  0.63870357  0.79503541    -0.61390
O1080       O  0.60810633  0.61130843  0.77563845    -0.52300
C1081       C  0.68398836  0.71003076  0.76682099     0.69720
O1082       O  0.65177026  0.71109716  0.78141818    -0.47160
C1083       C  0.68572660  0.70862409  0.89945504     0.74430
O1084       O  0.58575982  0.63505225  0.89147111    -0.59020
O1085       O  0.68642321  0.67629357  0.88493763    -0.49110
O1086       O  0.61127218  0.59703103  0.87298943    -0.55510
C1087       C  0.57177021  0.60567891  0.78220824     0.84610
O1088       O  0.68753866  0.67951008  0.78327088    -0.57340
O1089       O  0.65553566  0.71272788  0.88288783    -0.60640
In1090     In  0.86593124  0.89419840  0.58220904     1.36870
C1091       C  0.91867776  0.95521589  0.63489931     0.77060
O1092       O  0.92779937  0.91627048  0.54345184    -0.61390
O1093       O  0.89057719  0.94292981  0.52500779    -0.52300
C1094       C  0.81622727  0.84216153  0.51603994     0.69720
O1095       O  0.84667955  0.83943732  0.53449635    -0.47160
C1096       C  0.81498124  0.84251918  0.64819557     0.74430
O1097       O  0.91261741  0.91885715  0.64164140    -0.59020
O1098       O  0.81023962  0.87174374  0.62960627    -0.49110
O1099       O  0.88573420  0.95532332  0.62130257    -0.55450
C1100       C  0.92715482  0.94921158  0.53153645     0.84610
O1101       O  0.81449907  0.87448257  0.52811133    -0.57340
O1102       O  0.84838528  0.84277345  0.63590855    -0.60640
In1103     In  0.86603238  0.52893186  0.50030838     1.36870
C1104       C  0.92033267  0.52213406  0.94896914     0.77060
O1105       O  0.92779690  0.56904217  0.53927768    -0.61390
O1106       O  0.89054034  0.00538379  0.05845549    -0.52300
C1107       C  0.81539872  0.53027153  0.56596155     0.69720
O1108       O  0.84583671  0.56381718  0.54831937    -0.47160
C1109       C  0.81479790  0.52668117  0.93281975     0.74430
O1110       O  0.91467076  0.55291643  0.44337334    -0.59020
O1111       O  0.81294108  0.49343989  0.94947229    -0.49110
O1112       O  0.88716613  0.48875988  0.96109231    -0.55450
C1113       C  0.92717223  0.03559490  0.55211510     0.84610
O1114       O  0.81353732  0.49633431  0.55295700    -0.57340
O1115       O  0.84572715  0.56096890  0.94764626    -0.60640
In1116     In  0.63208865  0.52652524  0.75017573     1.36870
C1117       C  0.57774919  0.03368257  0.69881650     0.77060
O1118       O  0.57017123  0.48553725  0.78887969    -0.61390
O1119       O  0.60720215  0.54865405  0.80898701    -0.52300
C1120       C  0.68429621  0.53002659  0.81705549     0.69720
O1121       O  0.65378445  0.49550115  0.80221747    -0.47160
C1122       C  0.68186485  0.52390290  0.68415430     0.74430
O1123       O  0.58370773  0.00326316  0.69299983    -0.59020
O1124       O  0.68445777  0.55811789  0.69727279    -0.49110
O1125       O  0.61089060  0.56702246  0.71066690    -0.55450
C1126       C  0.57063765  0.51865695  0.80217199     0.84610
O1127       O  0.68545715  0.56301122  0.80052547    -0.57340
O1128       O  0.65109412  0.49062744  0.70191389    -0.60640
C1129       C  0.96119535  0.98757965  0.61399976     0.00040
C1130       C  0.99532337  0.98743212  0.63745166     0.00040
C1131       C  0.95892494  0.99106879  0.55383919     0.00040
C1132       C  0.95919935  0.02539802  0.53068218     0.00040
C1133       C  0.50109995  0.99004504  0.69760745     0.00040
C1134       C  0.53567381  0.02384002  0.72066672     0.00040
C1135       C  0.53875557  0.52935032  0.78082418     0.00040
C1136       C  0.53920777  0.56368826  0.80386828     0.00040
C1137       C  0.96228422  0.53131752  0.97053153     0.00040
C1138       C  0.99699468  0.56494714  0.94725674     0.00040
C1139       C  0.50255847  0.56766510  0.88710921     0.00040
C1140       C  0.53631777  0.56679970  0.86401363     0.00040
C1141       C  0.79156973  0.55405750  0.86032924    -0.02370
C1142       C  0.78141717  0.52590197  0.90132830     0.07310
C1143       C  0.73926709  0.50010825  0.91571364    -0.02490
C1144       C  0.70764887  0.50301622  0.88964376    -0.02490
C1145       C  0.71778885  0.53117816  0.84865979     0.07440
C1146       C  0.75990747  0.55686866  0.83415436    -0.02690
Br1147     Br  0.77474996  0.59430500  0.77642900    -0.01230
Br1148     Br  0.84873306  0.58700189  0.83771099    -0.01310
Br1149     Br  0.65048485  0.46991073  0.91222780    -0.01270
Br1150     Br  0.72415853  0.46213339  0.97296744    -0.01250
C1151       C  0.72582242  0.54525879  0.60592943    -0.02370
C1152       C  0.71438825  0.52347035  0.65257860     0.07310
C1153       C  0.73696942  0.50485389  0.67147628    -0.02490
C1154       C  0.77113746  0.50849068  0.64397536    -0.02490
C1155       C  0.78251720  0.53022050  0.59729614     0.07440
C1156       C  0.76003485  0.54897028  0.57848723    -0.02690
Br1157     Br  0.77486802  0.57876740  0.51439031    -0.01230
Br1158     Br  0.69293767  0.56788247  0.57816430    -0.01310
Br1159     Br  0.80435884  0.48631755  0.67192881    -0.01270
Br1160     Br  0.72262210  0.47578822  0.73604447    -0.01250
C1161       C  0.75996743  0.81789618  0.71575485    -0.02370
C1162       C  0.78237841  0.80886049  0.67967241     0.07310
C1163       C  0.77169182  0.76705902  0.67133955    -0.02490
C1164       C  0.73903517  0.73465361  0.69907010    -0.02490
C1165       C  0.71665873  0.74368553  0.73530505     0.07440
C1166       C  0.72743033  0.78556275  0.74367396    -0.02690
Br1167     Br  0.69994839  0.80005169  0.79560487    -0.01230
Br1168     Br  0.77481504  0.87485999  0.72915025    -0.01310
Br1169     Br  0.72407098  0.67770515  0.68507291    -0.01270
Br1170     Br  0.79958780  0.75300450  0.61960973    -0.01250
C1171       C  0.74087470  0.79609254  0.99422328    -0.02370
C1172       C  0.78317303  0.80831460  0.98546260     0.07310
C1173       C  0.79315324  0.78591936  0.95043052    -0.02490
C1174       C  0.76130400  0.75258343  0.92313910    -0.02490
C1175       C  0.71908300  0.74083901  0.93142255     0.07440
C1176       C  0.70911337  0.76224102  0.96773927    -0.02690
Br1177     Br  0.65157889  0.74348764  0.98395650    -0.01230
Br1178     Br  0.72518626  0.82361862  0.54459030    -0.01310
Br1179     Br  0.77661707  0.72496704  0.87253473    -0.01270
Br1180     Br  0.85060602  0.80170762  0.93758662    -0.01250
C1181       C  0.97620517  0.73599604  0.77706210    -0.02370
C1182       C  0.00317811  0.74657172  0.81925885     0.07310
C1183       C  0.52797755  0.78869747  0.83351537    -0.02490
C1184       C  0.52565497  0.81998832  0.80575092    -0.02490
C1185       C  0.99850031  0.80935650  0.76375657     0.07440
C1186       C  0.97380482  0.76725810  0.74940492    -0.02690
Br1187     Br  0.93803124  0.75194359  0.69024394    -0.01230
Br1188     Br  0.94387143  0.67877262  0.75537117    -0.01310
Br1189     Br  0.55794402  0.87726180  0.82726250    -0.01270
Br1190     Br  0.56336008  0.80395375  0.89299895    -0.01250
C1191       C  0.53439377  0.77865668  0.53252284    -0.02370
C1192       C  0.49678319  0.74288337  0.51745878     0.07310
C1193       C  0.95842958  0.74133766  0.52793390    -0.02490
C1194       C  0.95802491  0.77560835  0.55026624    -0.02490
C1195       C  0.99582494  0.81143985  0.56482035     0.07440
C1196       C  0.53406511  0.81337770  0.55293239    -0.02690
Br1197     Br  0.58747207  0.86420073  0.56051836    -0.01230
Br1198     Br  0.58751937  0.78063554  0.03022761    -0.01310
Br1199     Br  0.90468784  0.77304112  0.55719598    -0.01270
Br1200     Br  0.90507331  0.69176893  0.01519565    -0.01250
loop_ 
_geom_bond_atom_site_label_1 
_geom_bond_atom_site_label_2 
_geom_bond_distance 
_geom_bond_site_symmetry_2 
_ccdc_geom_bond_type 
In1           O6   2.183       .  S
In1           O8   2.166       .  S
In1          O10   2.257       .  S
In1          O13   2.194       .  S
In1         O603   2.260       .  S
In1         O604   2.169       .  S
In1         O612   2.195       .  S
In1         O609   2.185       .  S
C2            O8   1.265       .  A
C2           O10   1.273       .  A
C2           C88   1.525       .  S
O3         In601   2.260   1_655  S
O3           C11   1.273       .  A
O4         In601   2.169       .  S
O4           C11   1.266   1_455  A
C5            O6   1.276       .  A
C5          O612   1.277       .  A
C5          C132   1.474       .  S
C7            O9   1.274   1_655  A
C7          O613   1.275       .  A
C7          C292   1.501       .  S
O9         In601   2.185       .  S
C11          C89   1.525   1_655  S
O12        In601   2.195       .  S
O12         C605   1.277       .  A
O13         C607   1.275       .  A
In14         O16   2.257       .  S
In14         O17   2.158       .  S
In14         O25   2.197       .  S
In14         O22   2.190       .  S
In14        O619   2.170       .  S
In14        O621   2.164       .  S
In14        O623   2.260       .  S
In14        O626   2.189       .  S
C15          O21   1.266   1_655  A
C15          O23   1.273       .  A
C15          C83   1.525   1_655  S
O16          C24   1.272       .  A
O17          C24   1.265       .  A
C18          O25   1.276       .  A
C18         O619   1.273       .  A
C18         C145   1.498       .  S
O19        In614   2.170   1_455  S
O19         C618   1.273   1_455  A
C20          O22   1.276       .  A
C20         O626   1.277       .  A
C20         C135   1.473       .  S
O21        In614   2.164   1_455  S
O23        In614   2.260       .  S
C24          C80   1.523       .  S
O26        In614   2.189   1_455  S
O26         C620   1.277   1_455  A
In27         O29   2.256       .  S
In27         O30   2.160       .  S
In27         O38   2.189       .  S
In27         O32   2.181       .  S
In27         O34   2.161       .  S
In27         O35   2.191       .  S
In27         O36   2.256       .  S
In27         O39   2.182       .  S
C28          O34   1.267       .  A
C28          O36   1.272       .  A
C28          C90   1.524       .  S
O29          C37   1.272       .  A
O30          C37   1.267       .  A
C31          O38   1.277       .  A
C31          O32   1.275       .  A
C31         C115   1.480       .  S
C33          O35   1.275       .  A
C33          O39   1.277       .  A
C33         C125   1.480       .  S
C37          C86   1.523       .  S
In40         O42   2.256       .  S
In40         O43   2.163       .  S
In40         O51   2.187       .  S
In40         O45   2.189       .  S
In40         O47   2.163       .  S
In40         O48   2.187       .  S
In40         O49   2.260       .  S
In40         O52   2.187       .  S
C41          O47   1.265       .  A
C41          O49   1.273       .  A
C41          C79   1.526       .  S
O42          C50   1.273       .  A
O43          C50   1.267       .  A
C44          O51   1.276       .  A
C44          O45   1.276       .  A
C44         C272   1.480   1_554  S
C46          O48   1.277       .  A
C46          O52   1.276       .  A
C46         C112   1.478       .  S
C50          C81   1.524       .  S
In53         O55   2.258       .  S
In53         O64   2.190   1_545  S
In53         O58   2.197       .  S
In53         O60   2.161   1_554  S
In53        O506   2.164       .  S
In53        O211   2.189   1_544  S
In53        O212   2.256   1_544  S
In53        O215   2.182   1_554  S
C54          O62   1.273   1_545  A
C54         O210   1.268       .  A
C54          C87   1.523       .  S
O55         C363   1.273       .  A
O56        In503   2.164       .  S
O56         C213   1.267       .  A
C57          O64   1.277   1_545  A
C57          O58   1.276       .  A
C57         C105   1.472       .  S
C59          O61   1.276   1_545  A
C59          O65   1.277       .  A
C59          C92   1.474       .  S
O60         C204   1.268       .  A
O61        In203   2.189   1_565  S
O62        In203   2.256   1_565  S
C63         O355   1.273       .  A
C63         O206   1.267       .  A
C63          C82   1.526       .  S
O65        In203   2.182       .  S
In66         O68   2.261   1_545  S
In66         O69   2.167       .  S
In66         O77   2.195       .  S
In66         O71   2.177   1_545  S
In66         O74   2.188       .  S
In66         O75   2.261       .  S
In66         O78   2.202   1_545  S
In66        O373   2.160       .  S
C67          O73   1.266       .  A
C67         O375   1.273       .  A
C67          C84   1.526       .  S
O68          C76   1.273   1_565  A
O69          C76   1.265       .  A
C70          O77   1.277       .  A
C70          O71   1.276   1_545  A
C70          C95   1.473       .  S
C72          O74   1.276       .  A
C72          O78   1.277   1_545  A
C72         C102   1.472       .  S
O73        In366   2.160       .  S
O75         C367   1.273       .  A
C76          C85   1.527       .  S
C79          C80   1.407       .  D
C79          C81   1.589       .  S
C80         C683   1.590       .  S
C81          C82   1.404       .  D
C82         C537   1.589   1_554  S
C83          C84   1.407       .  D
C83         C680   1.590   1_455  S
C84         C385   1.590       .  S
C85          C86   1.408       .  D
C85         C384   1.590       .  S
C86          C90   1.591       .  S
C87          C88   1.405       .  D
C87         C532   1.589       .  S
C88         C689   1.589       .  S
C89          C90   1.407       .  D
C89         C688   1.589   1_455  S
C91          C92   1.409       .  A
C91          C96   1.406       .  A
C91         Br98   1.934       .  S
C92          C93   1.415       .  A
C93          C94   1.405       .  A
C93        Br100   1.935   1_545  S
C94          C95   1.409       .  A
C94         Br99   1.935   1_545  S
C95          C96   1.414       .  A
C96         Br97   1.934       .  S
C101        C102   1.407       .  A
C101        C106   1.406       .  A
C101       Br108   1.932       .  S
C102        C103   1.413       .  A
C103        C104   1.406       .  A
C103       Br110   1.930   1_545  S
C104        C105   1.407       .  A
C104       Br109   1.932   1_545  S
C105        C106   1.413       .  A
C106       Br107   1.931       .  S
C111        C112   1.410       .  A
C111        C116   1.406       .  A
C111       Br118   1.936       .  S
C112        C113   1.416       .  A
C113        C114   1.407       .  A
C113       Br120   1.935       .  S
C114        C115   1.412       .  A
C114       Br119   1.937       .  S
C115        C116   1.418       .  A
C116       Br117   1.938       .  S
C121        C122   1.416       .  A
C121        C126   1.405       .  A
C121       Br278   1.937       .  S
C122        C194   1.480       .  S
C122        C123   1.413       .  A
C123        C124   1.408       .  A
C123       Br130   1.935       .  S
C124        C125   1.416       .  A
C124       Br129   1.936       .  S
C125        C126   1.409       .  A
C126       Br127   1.931       .  S
Br128       C271   1.937   1_554  S
C131        C132   1.409       .  A
C131        C136   1.405       .  A
C131       Br138   1.934       .  S
C132        C733   1.414       .  A
C133        C134   1.406       .  A
C133        C732   1.414       .  A
C133       Br140   1.932       .  S
C134        C735   1.408   1_455  A
C134       Br139   1.934       .  S
C135        C136   1.414       .  A
C135        C734   1.408       .  A
C136       Br137   1.933       .  S
C141        C142   1.419   1_455  A
C141        C146   1.406       .  A
C141       Br298   1.935       .  S
C142        C157   1.501   1_554  S
C142        C743   1.422       .  A
C143        C144   1.412       .  A
C143        C742   1.422       .  A
C143       Br300   1.941       .  S
C144        C145   1.420       .  A
C144       Br149   1.940       .  S
C145        C746   1.419       .  A
C146        C745   1.419   1_455  A
C146       Br147   1.945       .  S
Br148       C291   1.935       .  S
Br150       C293   1.941       .  S
In151       O753   2.260       .  S
In151       O754   2.170       .  S
In151       O762   2.195       .  S
In151       O156   2.183       .  S
In151       O158   2.166       .  S
In151       O759   2.185       .  S
In151       O160   2.257       .  S
In151       O163   2.194       .  S
C152        O158   1.265       .  A
C152        O160   1.273       .  A
C152        C238   1.525       .  S
O153       In751   2.260   1_655  S
O153        C161   1.273       .  A
O154       In751   2.170       .  S
O154        C161   1.266   1_455  A
C155        O762   1.277       .  A
C155        O156   1.276       .  A
C155        C282   1.474       .  S
C157        O159   1.274   1_655  A
C157        O763   1.275       .  A
O159       In751   2.185       .  S
C161        C239   1.525   1_655  S
O162       In751   2.195       .  S
O162        C755   1.277       .  A
O163        C757   1.275       .  A
In164       O166   2.257       .  S
In164       O167   2.158       .  S
In164       O175   2.197       .  S
In164       O769   2.170       .  S
In164       O771   2.164       .  S
In164       O172   2.190       .  S
In164       O773   2.260       .  S
In164       O776   2.189       .  S
C165        O171   1.266   1_655  A
C165        O173   1.273       .  A
C165        C233   1.525   1_655  S
O166        C174   1.272       .  A
O167        C174   1.265       .  A
C168        O175   1.276       .  A
C168        O769   1.273       .  A
C168        C295   1.498       .  S
O169       In764   2.170   1_455  S
O169        C768   1.273   1_455  A
C170        O172   1.276       .  A
C170        O776   1.277       .  A
C170        C285   1.473       .  S
O171       In764   2.164   1_455  S
O173       In764   2.260       .  S
C174        C230   1.523       .  S
O176       In764   2.189   1_455  S
O176        C770   1.277   1_455  A
In177       O179   2.256       .  S
In177       O180   2.160       .  S
In177       O188   2.189       .  S
In177       O182   2.181       .  S
In177       O184   2.161       .  S
In177       O185   2.191       .  S
In177       O186   2.256       .  S
In177       O189   2.182       .  S
C178        O184   1.267       .  A
C178        O186   1.272       .  A
C178        C240   1.524       .  S
O179        C187   1.272       .  A
O180        C187   1.267       .  A
C181        O188   1.277       .  A
C181        O182   1.275       .  A
C181        C265   1.480       .  S
C183        O185   1.275       .  A
C183        O189   1.277       .  A
C183        C275   1.480       .  S
C187        C236   1.523       .  S
In190       O192   2.256       .  S
In190       O193   2.163       .  S
In190       O201   2.187       .  S
In190       O195   2.189       .  S
In190       O197   2.163       .  S
In190       O198   2.187       .  S
In190       O199   2.260       .  S
In190       O202   2.187       .  S
C191        O197   1.265       .  A
C191        O199   1.273       .  A
C191        C229   1.526       .  S
O192        C200   1.273       .  A
O193        C200   1.267       .  A
C194        O201   1.276       .  A
C194        O195   1.276       .  A
C196        O198   1.277       .  A
C196        O202   1.276       .  A
C196        C262   1.478       .  S
C200        C231   1.524       .  S
In203       O205   2.258       .  S
In203       O356   2.164       .  S
In203       O214   2.190   1_545  S
In203       O208   2.197       .  S
In203       O210   2.161       .  S
C204        O212   1.273   1_545  A
C204        C237   1.523       .  S
O205        C513   1.273       .  A
O206       In353   2.164       .  S
C207        O214   1.277   1_545  A
C207        O208   1.276       .  A
C207        C255   1.472       .  S
C209        O211   1.276   1_545  A
C209        O215   1.277       .  A
C209        C242   1.474       .  S
C213        O505   1.273       .  A
C213        C232   1.526       .  S
In216       O218   2.261   1_545  S
In216       O219   2.167       .  S
In216       O227   2.195       .  S
In216       O221   2.177   1_545  S
In216       O523   2.160       .  S
In216       O224   2.188       .  S
In216       O225   2.261       .  S
In216       O228   2.202   1_545  S
C217        O223   1.266       .  A
C217        O525   1.273       .  A
C217        C234   1.525       .  S
O218        C226   1.273   1_565  A
O219        C226   1.265       .  A
C220        O227   1.277       .  A
C220        O221   1.276   1_545  A
C220        C245   1.473       .  S
C222        O224   1.276       .  A
C222        O228   1.277   1_545  A
C222        C252   1.472       .  S
O223       In516   2.160       .  S
O225        C517   1.273       .  A
C226        C235   1.527       .  S
C229        C230   1.407       .  D
C229        C231   1.589       .  S
C230        C833   1.589       .  S
C231        C232   1.404       .  D
C232        C387   1.589       .  S
C233        C234   1.407       .  D
C233        C830   1.589   1_455  S
C234        C535   1.590       .  S
C235        C236   1.408       .  D
C235        C534   1.590       .  S
C236        C240   1.591       .  S
C237        C238   1.405       .  D
C237        C382   1.589   1_556  S
C238        C839   1.589       .  S
C239        C240   1.407       .  D
C239        C838   1.589   1_455  S
C241        C242   1.409       .  A
C241        C246   1.406       .  A
C241       Br248   1.934       .  S
C242        C243   1.415       .  A
C243        C244   1.405       .  A
C243       Br250   1.935   1_545  S
C244        C245   1.409       .  A
C244       Br249   1.935   1_545  S
C245        C246   1.414       .  A
C246       Br247   1.934       .  S
C251        C252   1.407       .  A
C251        C256   1.406       .  A
C251       Br258   1.932       .  S
C252        C253   1.413       .  A
C253        C254   1.406       .  A
C253       Br260   1.930   1_545  S
C254        C255   1.407       .  A
C254       Br259   1.932   1_545  S
C255        C256   1.413       .  A
C256       Br257   1.931       .  S
C261        C262   1.410       .  A
C261        C266   1.406       .  A
C261       Br268   1.936       .  S
C262        C263   1.416       .  A
C263        C264   1.407       .  A
C263       Br270   1.935       .  S
C264        C265   1.412       .  A
C264       Br269   1.937       .  S
C265        C266   1.418       .  A
C266       Br267   1.938       .  S
C271        C272   1.416       .  A
C271        C276   1.405       .  A
C272        C273   1.413       .  A
C273        C274   1.408       .  A
C273       Br280   1.935       .  S
C274        C275   1.416       .  A
C274       Br279   1.936       .  S
C275        C276   1.409       .  A
C276       Br277   1.931       .  S
C281        C282   1.409       .  A
C281        C286   1.405       .  A
C281       Br288   1.934       .  S
C282        C883   1.414       .  A
C283        C882   1.414       .  A
C283        C284   1.406       .  A
C283       Br290   1.932       .  S
C284        C885   1.408   1_455  A
C284       Br289   1.934       .  S
C285        C884   1.408       .  A
C285        C286   1.414       .  A
C286       Br287   1.933       .  S
C291        C292   1.419   1_455  A
C291        C296   1.406       .  A
C292        C893   1.422       .  A
C293        C892   1.422       .  A
C293        C294   1.412       .  A
C294        C295   1.420       .  A
C294       Br299   1.940       .  S
C295        C896   1.419       .  A
C296        C895   1.419   1_455  A
C296       Br297   1.945       .  S
In301       O903   2.260       .  S
In301       O904   2.170       .  S
In301       O912   2.195       .  S
In301       O306   2.183       .  S
In301       O308   2.166       .  S
In301       O909   2.185       .  S
In301       O310   2.257       .  S
In301       O313   2.194       .  S
C302        O308   1.265       .  A
C302        O310   1.273       .  A
C302        C388   1.525       .  S
O303       In901   2.260   1_655  S
O303        C311   1.273       .  A
O304       In901   2.170       .  S
O304        C311   1.266   1_455  A
C305        O912   1.277       .  A
C305        O306   1.276       .  A
C305        C432   1.474       .  S
C307        O309   1.274   1_655  A
C307        O913   1.275       .  A
C307        C592   1.501       .  S
O309       In901   2.185       .  S
C311        C389   1.525   1_655  S
O312       In901   2.195       .  S
O312        C905   1.277       .  A
O313        C907   1.275       .  A
In314       O316   2.257       .  S
In314       O317   2.158       .  S
In314       O325   2.197       .  S
In314       O919   2.170       .  S
In314       O921   2.164       .  S
In314       O322   2.190       .  S
In314       O923   2.260       .  S
In314       O926   2.189       .  S
C315        O321   1.266   1_655  A
C315        O323   1.273       .  A
C315        C383   1.525   1_655  S
O316        C324   1.272       .  A
O317        C324   1.265       .  A
C318        O325   1.276       .  A
C318        O919   1.273       .  A
C318        C445   1.498       .  S
O319       In914   2.170   1_455  S
O319        C918   1.273   1_455  A
C320        O322   1.276       .  A
C320        O926   1.277       .  A
C320        C435   1.473       .  S
O321       In914   2.164   1_455  S
O323       In914   2.260       .  S
C324        C380   1.523       .  S
O326       In914   2.189   1_455  S
O326        C920   1.277   1_455  A
In327       O329   2.256       .  S
In327       O330   2.160       .  S
In327       O338   2.189       .  S
In327       O332   2.181       .  S
In327       O334   2.161       .  S
In327       O335   2.191       .  S
In327       O336   2.256       .  S
In327       O339   2.182       .  S
C328        O334   1.267       .  A
C328        O336   1.272       .  A
C328        C390   1.524       .  S
O329        C337   1.272       .  A
O330        C337   1.267       .  A
C331        O338   1.277       .  A
C331        O332   1.275       .  A
C331        C415   1.480       .  S
C333        O335   1.275       .  A
C333        O339   1.277       .  A
C333        C425   1.480       .  S
C337        C386   1.523       .  S
In340       O342   2.256       .  S
In340       O343   2.163       .  S
In340       O351   2.187       .  S
In340       O345   2.189       .  S
In340       O347   2.163       .  S
In340       O348   2.187       .  S
In340       O349   2.260       .  S
In340       O352   2.187       .  S
C341        O347   1.265       .  A
C341        O349   1.273       .  A
C341        C379   1.526       .  S
O342        C350   1.273       .  A
O343        C350   1.267       .  A
C344        O351   1.276       .  A
C344        O345   1.276       .  A
C344        C572   1.480   1_554  S
C346        O348   1.277       .  A
C346        O352   1.276       .  A
C346        C412   1.478       .  S
C350        C381   1.524       .  S
In353       O355   2.258       .  S
In353       O364   2.190       .  S
In353       O358   2.197       .  S
In353       O360   2.161   1_554  S
In353       O511   2.189   1_554  S
In353       O512   2.256   1_554  S
In353       O515   2.182   1_554  S
C354        O510   1.268       .  A
C354        O362   1.273       .  A
C354        C387   1.523       .  S
O356        C513   1.267       .  A
C357        O364   1.277       .  A
C357        O358   1.276       .  A
C357        C405   1.472       .  S
C359        O361   1.276       .  A
C359        O365   1.277       .  A
C359        C392   1.474       .  S
O360        C504   1.268       .  A
O361       In503   2.189       .  S
O362       In503   2.256       .  S
C363        O506   1.267       .  A
C363        C382   1.526       .  S
O365       In503   2.182       .  S
In366       O368   2.261       .  S
In366       O369   2.167       .  S
In366       O377   2.195       .  S
In366       O371   2.177       .  S
In366       O374   2.188       .  S
In366       O375   2.261       .  S
In366       O378   2.202       .  S
C367        O373   1.266       .  A
C367        C384   1.526       .  S
O368        C376   1.273       .  A
O369        C376   1.265       .  A
C370        O377   1.277       .  A
C370        O371   1.276       .  A
C370        C395   1.473       .  S
C372        O374   1.276       .  A
C372        O378   1.277       .  A
C372        C402   1.472       .  S
C376        C385   1.527       .  S
C379        C380   1.407       .  D
C379        C381   1.589       .  S
C380        C983   1.590       .  S
C381        C382   1.404   1_565  D
C383        C384   1.407   1_565  D
C383        C980   1.590   1_455  S
C385        C386   1.408       .  D
C386        C390   1.591       .  S
C387        C388   1.405       .  D
C388        C989   1.589       .  S
C389        C390   1.407       .  D
C389        C988   1.589   1_455  S
C391        C392   1.409       .  A
C391        C396   1.406       .  A
C391       Br398   1.934       .  S
C392        C393   1.415       .  A
C393        C394   1.405       .  A
C393       Br400   1.935       .  S
C394        C395   1.409       .  A
C394       Br399   1.935       .  S
C395        C396   1.414       .  A
C396       Br397   1.934       .  S
C401        C402   1.407       .  A
C401        C406   1.406       .  A
C401       Br408   1.932       .  S
C402        C403   1.413       .  A
C403        C404   1.406       .  A
C403       Br410   1.930       .  S
C404        C405   1.407       .  A
C404       Br409   1.932       .  S
C405        C406   1.413       .  A
C406       Br407   1.931       .  S
C411        C412   1.410       .  A
C411        C416   1.406       .  A
C411       Br418   1.936       .  S
C412        C413   1.416       .  A
C413        C414   1.407       .  A
C413       Br420   1.935       .  S
C414        C415   1.412       .  A
C414       Br419   1.937       .  S
C415        C416   1.418       .  A
C416       Br417   1.938       .  S
C421        C422   1.416       .  A
C421        C426   1.405       .  A
C421       Br578   1.937       .  S
C422        C494   1.480       .  S
C422        C423   1.413       .  A
C423        C424   1.408       .  A
C423       Br430   1.935       .  S
C424        C425   1.416       .  A
C424       Br429   1.936       .  S
C425        C426   1.409       .  A
C426       Br427   1.931       .  S
Br428       C571   1.937   1_554  S
C431        C432   1.409       .  A
C431        C436   1.405       .  A
C431       Br438   1.934       .  S
C432       C1033   1.414       .  A
C433       C1032   1.414       .  A
C433        C434   1.406       .  A
C433       Br440   1.932       .  S
C434       C1035   1.408   1_455  A
C434       Br439   1.934       .  S
C435       C1034   1.408       .  A
C435        C436   1.414       .  A
C436       Br437   1.933       .  S
C441        C442   1.419   1_455  A
C441        C446   1.406       .  A
C441       Br598   1.935       .  S
C442        C457   1.501   1_554  S
C442       C1043   1.422       .  A
C443       C1042   1.422       .  A
C443        C444   1.412       .  A
C443       Br600   1.941       .  S
C444        C445   1.420       .  A
C444       Br449   1.940       .  S
C445       C1046   1.419       .  A
C446       C1045   1.419   1_455  A
C446       Br447   1.945       .  S
Br448       C591   1.935       .  S
Br450       C593   1.941       .  S
In451      O1053   2.260       .  S
In451      O1054   2.170       .  S
In451      O1062   2.195       .  S
In451       O456   2.183       .  S
In451       O458   2.166       .  S
In451      O1059   2.185       .  S
In451       O460   2.257       .  S
In451       O463   2.194       .  S
C452        O458   1.265       .  A
C452        O460   1.273       .  A
C452        C538   1.525       .  S
O453      In1051   2.260   1_655  S
O453        C461   1.273       .  A
O454      In1051   2.170       .  S
O454        C461   1.266   1_455  A
C455       O1062   1.277       .  A
C455        O456   1.276       .  A
C455        C582   1.474       .  S
C457        O459   1.274   1_655  A
C457       O1063   1.275       .  A
O459      In1051   2.185       .  S
C461        C539   1.525   1_655  S
O462      In1051   2.195       .  S
O462       C1055   1.277       .  A
O463       C1057   1.275       .  A
In464       O466   2.257       .  S
In464       O467   2.158       .  S
In464       O475   2.196       .  S
In464      O1069   2.170       .  S
In464      O1071   2.164       .  S
In464       O472   2.190       .  S
In464      O1073   2.260       .  S
In464      O1076   2.189       .  S
C465        O471   1.266   1_655  A
C465        O473   1.273       .  A
C465        C533   1.525   1_655  S
O466        C474   1.272       .  A
O467        C474   1.265       .  A
C468        O475   1.276       .  A
C468       O1069   1.273       .  A
C468        C595   1.498       .  S
O469      In1064   2.170   1_455  S
O469       C1068   1.273   1_455  A
C470        O472   1.276       .  A
C470       O1076   1.277       .  A
C470        C585   1.473       .  S
O471      In1064   2.164   1_455  S
O473      In1064   2.260       .  S
C474        C530   1.523       .  S
O476      In1064   2.189   1_455  S
O476       C1070   1.277   1_455  A
In477       O479   2.256       .  S
In477       O480   2.160       .  S
In477       O488   2.189       .  S
In477       O482   2.181       .  S
In477       O484   2.161       .  S
In477       O485   2.191       .  S
In477       O486   2.256       .  S
In477       O489   2.182       .  S
C478        O484   1.267       .  A
C478        O486   1.272       .  A
C478        C540   1.524       .  S
O479        C487   1.272       .  A
O480        C487   1.268       .  A
C481        O488   1.277       .  A
C481        O482   1.275       .  A
C481        C565   1.480       .  S
C483        O485   1.275       .  A
C483        O489   1.277       .  A
C483        C575   1.480       .  S
C487        C536   1.523       .  S
In490       O492   2.256       .  S
In490       O493   2.163       .  S
In490       O501   2.187       .  S
In490       O495   2.189       .  S
In490       O497   2.163       .  S
In490       O498   2.187       .  S
In490       O499   2.260       .  S
In490       O502   2.187       .  S
C491        O497   1.265       .  A
C491        O499   1.273       .  A
C491        C529   1.526       .  S
O492        C500   1.273       .  A
O493        C500   1.267       .  A
C494        O501   1.276       .  A
C494        O495   1.276       .  A
C496        O498   1.277       .  A
C496        O502   1.276       .  A
C496        C562   1.478       .  S
C500        C531   1.524       .  S
In503       O505   2.258       .  S
In503       O514   2.190       .  S
In503       O508   2.197       .  S
In503       O510   2.161       .  S
C504        O512   1.273       .  A
C504        C537   1.523       .  S
C507        O514   1.277       .  A
C507        O508   1.276       .  A
C507        C555   1.472       .  S
C509        O511   1.276       .  A
C509        O515   1.277       .  A
C509        C542   1.474       .  S
C513        C532   1.526       .  S
In516       O518   2.261       .  S
In516       O519   2.167       .  S
In516       O527   2.195       .  S
In516       O521   2.177       .  S
In516       O524   2.188       .  S
In516       O525   2.261       .  S
In516       O528   2.202       .  S
C517        O523   1.266       .  A
C517        C534   1.526       .  S
O518        C526   1.273       .  A
O519        C526   1.265       .  A
C520        O527   1.277       .  A
C520        O521   1.276       .  A
C520        C545   1.473       .  S
C522        O524   1.276       .  A
C522        O528   1.277       .  A
C522        C552   1.472       .  S
C526        C535   1.527       .  S
C529        C530   1.407       .  D
C529        C531   1.589       .  S
C530       C1133   1.589       .  S
C531        C532   1.404   1_565  D
C533        C534   1.407   1_565  D
C533       C1130   1.589   1_455  S
C535        C536   1.408       .  D
C536        C540   1.591       .  S
C537        C538   1.405       .  D
C538       C1139   1.589       .  S
C539        C540   1.407       .  D
C539       C1138   1.589   1_455  S
C541        C542   1.409       .  A
C541        C546   1.406       .  A
C541       Br548   1.934       .  S
C542        C543   1.415       .  A
C543        C544   1.405       .  A
C543       Br550   1.935       .  S
C544        C545   1.409       .  A
C544       Br549   1.935       .  S
C545        C546   1.414       .  A
C546       Br547   1.934       .  S
C551        C552   1.407       .  A
C551        C556   1.406       .  A
C551       Br558   1.932       .  S
C552        C553   1.413       .  A
C553        C554   1.406       .  A
C553       Br560   1.930       .  S
C554        C555   1.407       .  A
C554       Br559   1.932       .  S
C555        C556   1.413       .  A
C556       Br557   1.931       .  S
C561        C562   1.410       .  A
C561        C566   1.406       .  A
C561       Br568   1.936       .  S
C562        C563   1.416       .  A
C563        C564   1.407       .  A
C563       Br570   1.935       .  S
C564        C565   1.412       .  A
C564       Br569   1.937       .  S
C565        C566   1.418       .  A
C566       Br567   1.938       .  S
C571        C572   1.416       .  A
C571        C576   1.405       .  A
C572        C573   1.413       .  A
C573        C574   1.408       .  A
C573       Br580   1.935       .  S
C574        C575   1.416       .  A
C574       Br579   1.936       .  S
C575        C576   1.409       .  A
C576       Br577   1.931       .  S
C581        C582   1.409       .  A
C581        C586   1.405       .  A
C581       Br588   1.934       .  S
C582       C1183   1.414       .  A
C583       C1182   1.414       .  A
C583        C584   1.406       .  A
C583       Br590   1.932       .  S
C584       C1185   1.408   1_455  A
C584       Br589   1.934       .  S
C585       C1184   1.408       .  A
C585        C586   1.414       .  A
C586       Br587   1.933       .  S
C591        C592   1.419   1_455  A
C591        C596   1.406       .  A
C592       C1193   1.422       .  A
C593       C1192   1.422       .  A
C593        C594   1.412       .  A
C594        C595   1.420       .  A
C594       Br599   1.940       .  S
C595       C1196   1.419       .  A
C596       C1195   1.419   1_455  A
C596       Br597   1.945       .  S
In601       O606   2.183   1_455  S
In601       O608   2.166   1_455  S
In601       O610   2.257       .  S
In601       O613   2.194   1_455  S
C602        O608   1.265   1_455  A
C602        O610   1.273       .  A
C602        C688   1.525   1_455  S
O603        C611   1.273       .  A
O604        C611   1.266       .  A
C605        O606   1.276   1_455  A
C605        C732   1.474       .  S
C607        O609   1.274       .  A
C607        C892   1.501       .  S
C611        C689   1.525       .  S
In614       O616   2.257   1_655  S
In614       O617   2.158       .  S
In614       O625   2.197       .  S
In614       O622   2.190       .  S
C615        O621   1.266       .  A
C615        O623   1.273       .  A
C615        C683   1.525       .  S
O616        C624   1.272       .  A
O617        C624   1.265   1_655  A
C618        O625   1.276       .  A
C618        C745   1.498       .  S
C620        O622   1.276       .  A
C620        C735   1.473       .  S
C624        C680   1.523   1_455  S
In627       O629   2.256       .  S
In627       O630   2.160       .  S
In627       O638   2.189       .  S
In627       O632   2.181       .  S
In627       O634   2.161       .  S
In627       O635   2.191       .  S
In627       O636   2.256       .  S
In627       O639   2.182       .  S
C628        O634   1.267       .  A
C628        O636   1.272       .  A
C628        C690   1.524       .  S
O629        C637   1.272       .  A
O630        C637   1.267       .  A
C631        O638   1.277       .  A
C631        O632   1.275       .  A
C631        C715   1.480       .  S
C633        O635   1.275       .  A
C633        O639   1.277       .  A
C633        C725   1.480       .  S
C637        C686   1.523       .  S
In640       O642   2.256       .  S
In640       O643   2.163       .  S
In640       O651   2.187       .  S
In640       O645   2.189       .  S
In640       O647   2.163       .  S
In640       O648   2.187       .  S
In640       O649   2.260       .  S
In640       O652   2.187       .  S
C641        O647   1.265       .  A
C641        O649   1.273       .  A
C641        C679   1.526       .  S
O642        C650   1.273       .  A
O643        C650   1.267       .  A
C644        O651   1.276       .  A
C644        O645   1.276       .  A
C644        C872   1.480   1_554  S
C646        O648   1.277       .  A
C646        O652   1.276       .  A
C646        C712   1.478       .  S
C650        C681   1.524       .  S
In653       O655   2.258       .  S
In653      O1106   2.164       .  S
In653       O664   2.190   1_545  S
In653       O658   2.197       .  S
In653       O660   2.161   1_554  S
In653       O811   2.189   1_544  S
In653       O812   2.256   1_544  S
In653       O815   2.182   1_554  S
C654        O810   1.268       .  A
C654        O662   1.273   1_545  A
C654        C687   1.523       .  S
O655        C963   1.273       .  A
O656      In1103   2.164       .  S
O656        C813   1.267       .  A
C657        O664   1.277   1_545  A
C657        O658   1.276       .  A
C657        C705   1.472       .  S
C659        O661   1.276   1_545  A
C659        O665   1.277       .  A
C659        C692   1.474       .  S
O660        C804   1.268       .  A
O661       In803   2.189   1_565  S
O662       In803   2.256   1_565  S
C663        O955   1.273       .  A
C663        O806   1.267       .  A
C663        C682   1.526       .  S
O665       In803   2.182       .  S
In666       O668   2.261   1_545  S
In666       O669   2.167       .  S
In666       O677   2.195       .  S
In666       O671   2.177   1_545  S
In666       O973   2.160       .  S
In666       O674   2.188       .  S
In666       O675   2.261       .  S
In666       O678   2.202   1_545  S
C667        O673   1.266       .  A
C667        O975   1.273       .  A
C667        C684   1.526       .  S
O668        C676   1.273   1_565  A
O669        C676   1.265       .  A
C670        O677   1.277       .  A
C670        O671   1.276   1_545  A
C670        C695   1.473       .  S
C672        O674   1.276       .  A
C672        O678   1.277   1_545  A
C672        C702   1.472       .  S
O673       In966   2.160       .  S
O675        C967   1.273       .  A
C676        C685   1.527       .  S
C679        C680   1.407       .  D
C679        C681   1.589       .  S
C681        C682   1.404       .  D
C682       C1137   1.589   1_554  S
C683        C684   1.407       .  D
C684        C985   1.590       .  S
C685        C686   1.408       .  D
C685        C984   1.590       .  S
C686        C690   1.591       .  S
C687        C688   1.405       .  D
C687       C1132   1.589       .  S
C689        C690   1.407       .  D
C691        C692   1.409       .  A
C691        C696   1.406       .  A
C691       Br698   1.934       .  S
C692        C693   1.415       .  A
C693        C694   1.405       .  A
C693       Br700   1.935   1_545  S
C694        C695   1.409       .  A
C694       Br699   1.935   1_545  S
C695        C696   1.414       .  A
C696       Br697   1.934       .  S
C701        C702   1.407       .  A
C701        C706   1.406       .  A
C701       Br708   1.932       .  S
C702        C703   1.413       .  A
C703        C704   1.406       .  A
C703       Br710   1.930   1_545  S
C704        C705   1.407       .  A
C704       Br709   1.932   1_545  S
C705        C706   1.413       .  A
C706       Br707   1.931       .  S
C711        C712   1.410       .  A
C711        C716   1.406       .  A
C711       Br718   1.936       .  S
C712        C713   1.416       .  A
C713        C714   1.407       .  A
C713       Br720   1.935       .  S
C714        C715   1.412       .  A
C714       Br719   1.937       .  S
C715        C716   1.418       .  A
C716       Br717   1.938       .  S
C721        C722   1.416       .  A
C721        C726   1.405       .  A
C721       Br878   1.937       .  S
C722        C794   1.480       .  S
C722        C723   1.413       .  A
C723        C724   1.408       .  A
C723       Br730   1.935       .  S
C724        C725   1.416       .  A
C724       Br729   1.936       .  S
C725        C726   1.409       .  A
C726       Br727   1.931       .  S
Br728       C871   1.937   1_554  S
C731        C732   1.409   1_655  A
C731        C736   1.405       .  A
C731       Br738   1.934       .  S
C733        C734   1.406       .  A
C733       Br740   1.932       .  S
C734       Br739   1.934       .  S
C735        C736   1.414       .  A
C736       Br737   1.933       .  S
C741        C742   1.419       .  A
C741        C746   1.406       .  A
C741       Br898   1.935       .  S
C742        C757   1.501   1_554  S
C743        C744   1.412       .  A
C743       Br900   1.941       .  S
C744        C745   1.420       .  A
C744       Br749   1.940       .  S
C746       Br747   1.945       .  S
Br748       C891   1.935       .  S
Br750       C893   1.941       .  S
In751       O756   2.183   1_455  S
In751       O758   2.166   1_455  S
In751       O760   2.257       .  S
In751       O763   2.194   1_455  S
C752        O758   1.265   1_455  A
C752        O760   1.273       .  A
C752        C838   1.525   1_455  S
O753        C761   1.273       .  A
O754        C761   1.266       .  A
C755        O756   1.276   1_455  A
C755        C882   1.474       .  S
C757        O759   1.274       .  A
C761        C839   1.525       .  S
In764       O766   2.257   1_655  S
In764       O767   2.158       .  S
In764       O775   2.197       .  S
In764       O772   2.190       .  S
C765        O771   1.266       .  A
C765        O773   1.273       .  A
C765        C833   1.525       .  S
O766        C774   1.272       .  A
O767        C774   1.265   1_655  A
C768        O775   1.276       .  A
C768        C895   1.498       .  S
C770        O772   1.276       .  A
C770        C885   1.473       .  S
C774        C830   1.523   1_455  S
In777       O779   2.256       .  S
In777       O780   2.160       .  S
In777       O788   2.189       .  S
In777       O782   2.181       .  S
In777       O784   2.161       .  S
In777       O785   2.191       .  S
In777       O786   2.256       .  S
In777       O789   2.182       .  S
C778        O784   1.267       .  A
C778        O786   1.272       .  A
C778        C840   1.524       .  S
O779        C787   1.272       .  A
O780        C787   1.267       .  A
C781        O788   1.277       .  A
C781        O782   1.275       .  A
C781        C865   1.480       .  S
C783        O785   1.275       .  A
C783        O789   1.277       .  A
C783        C875   1.480       .  S
C787        C836   1.523       .  S
In790       O792   2.256       .  S
In790       O793   2.163       .  S
In790       O801   2.187       .  S
In790       O795   2.189       .  S
In790       O797   2.163       .  S
In790       O798   2.187       .  S
In790       O799   2.260       .  S
In790       O802   2.187       .  S
C791        O797   1.265       .  A
C791        O799   1.273       .  A
C791        C829   1.526       .  S
O792        C800   1.273       .  A
O793        C800   1.267       .  A
C794        O801   1.276       .  A
C794        O795   1.276       .  A
C796        O798   1.277       .  A
C796        O802   1.276       .  A
C796        C862   1.478       .  S
C800        C831   1.524       .  S
In803       O805   2.258       .  S
In803       O956   2.164       .  S
In803       O814   2.190   1_545  S
In803       O808   2.197       .  S
In803       O810   2.161       .  S
C804        O812   1.273   1_545  A
C804        C837   1.523       .  S
O805       C1113   1.273       .  A
O806       In953   2.164       .  S
C807        O814   1.277   1_545  A
C807        O808   1.276       .  A
C807        C855   1.472       .  S
C809        O811   1.276   1_545  A
C809        O815   1.277       .  A
C809        C842   1.474       .  S
C813       O1105   1.273       .  A
C813        C832   1.526       .  S
In816       O818   2.261   1_545  S
In816       O819   2.167       .  S
In816       O827   2.195       .  S
In816       O821   2.177   1_545  S
In816      O1123   2.160       .  S
In816       O824   2.188       .  S
In816       O825   2.261       .  S
In816       O828   2.202   1_545  S
C817        O823   1.266       .  A
C817       O1125   1.273       .  A
C817        C834   1.525       .  S
O818        C826   1.273   1_565  A
O819        C826   1.265       .  A
C820        O827   1.277       .  A
C820        O821   1.276   1_545  A
C820        C845   1.473       .  S
C822        O824   1.276       .  A
C822        O828   1.277   1_545  A
C822        C852   1.472       .  S
O823      In1116   2.160       .  S
O825       C1117   1.273       .  A
C826        C835   1.527       .  S
C829        C830   1.407       .  D
C829        C831   1.589       .  S
C831        C832   1.404       .  D
C832        C987   1.589       .  S
C833        C834   1.407       .  D
C834       C1135   1.590       .  S
C835        C836   1.408       .  D
C835       C1134   1.590       .  S
C836        C840   1.591       .  S
C837        C838   1.405       .  D
C837        C982   1.589   1_556  S
C839        C840   1.407       .  D
C841        C842   1.409       .  A
C841        C846   1.406       .  A
C841       Br848   1.934       .  S
C842        C843   1.415       .  A
C843        C844   1.405       .  A
C843       Br850   1.935   1_545  S
C844        C845   1.409       .  A
C844       Br849   1.935   1_545  S
C845        C846   1.414       .  A
C846       Br847   1.934       .  S
C851        C852   1.407       .  A
C851        C856   1.406       .  A
C851       Br858   1.932       .  S
C852        C853   1.413       .  A
C853        C854   1.406       .  A
C853       Br860   1.930   1_545  S
C854        C855   1.407       .  A
C854       Br859   1.932   1_545  S
C855        C856   1.413       .  A
C856       Br857   1.931       .  S
C861        C862   1.410       .  A
C861        C866   1.406       .  A
C861       Br868   1.936       .  S
C862        C863   1.416       .  A
C863        C864   1.407       .  A
C863       Br870   1.935       .  S
C864        C865   1.412       .  A
C864       Br869   1.937       .  S
C865        C866   1.418       .  A
C866       Br867   1.938       .  S
C871        C872   1.416       .  A
C871        C876   1.405       .  A
C872        C873   1.413       .  A
C873        C874   1.408       .  A
C873       Br880   1.935       .  S
C874        C875   1.416       .  A
C874       Br879   1.936       .  S
C875        C876   1.409       .  A
C876       Br877   1.931       .  S
C881        C882   1.409   1_655  A
C881        C886   1.405       .  A
C881       Br888   1.934       .  S
C883        C884   1.406       .  A
C883       Br890   1.932       .  S
C884       Br889   1.934       .  S
C885        C886   1.414       .  A
C886       Br887   1.933       .  S
C891        C892   1.419       .  A
C891        C896   1.406       .  A
C893        C894   1.412       .  A
C894        C895   1.420       .  A
C894       Br899   1.940       .  S
C896       Br897   1.945       .  S
In901       O906   2.183   1_455  S
In901       O908   2.166   1_455  S
In901       O910   2.257       .  S
In901       O913   2.194   1_455  S
C902        O908   1.265   1_455  A
C902        O910   1.273       .  A
C902        C988   1.525   1_455  S
O903        C911   1.273       .  A
O904        C911   1.266       .  A
C905        O906   1.276   1_455  A
C905       C1032   1.474       .  S
C907        O909   1.274       .  A
C907       C1192   1.501       .  S
C911        C989   1.525       .  S
In914       O916   2.257   1_655  S
In914       O917   2.158       .  S
In914       O925   2.197       .  S
In914       O922   2.190       .  S
C915        O921   1.266       .  A
C915        O923   1.273       .  A
C915        C983   1.525       .  S
O916        C924   1.272       .  A
O917        C924   1.265   1_655  A
C918        O925   1.276       .  A
C918       C1045   1.498       .  S
C920        O922   1.276       .  A
C920       C1035   1.473       .  S
C924        C980   1.523   1_455  S
In927       O929   2.256       .  S
In927       O930   2.160       .  S
In927       O938   2.189       .  S
In927       O932   2.181       .  S
In927       O934   2.161       .  S
In927       O935   2.191       .  S
In927       O936   2.256       .  S
In927       O939   2.182       .  S
C928        O934   1.267       .  A
C928        O936   1.272       .  A
C928        C990   1.524       .  S
O929        C937   1.272       .  A
O930        C937   1.267       .  A
C931        O938   1.277       .  A
C931        O932   1.275       .  A
C931       C1015   1.480       .  S
C933        O935   1.275       .  A
C933        O939   1.277       .  A
C933       C1025   1.480       .  S
C937        C986   1.523       .  S
In940       O942   2.256       .  S
In940       O943   2.163       .  S
In940       O951   2.187       .  S
In940       O945   2.189       .  S
In940       O947   2.163       .  S
In940       O948   2.187       .  S
In940       O949   2.260       .  S
In940       O952   2.187       .  S
C941        O947   1.265       .  A
C941        O949   1.273       .  A
C941        C979   1.526       .  S
O942        C950   1.273       .  A
O943        C950   1.267       .  A
C944        O951   1.276       .  A
C944        O945   1.276       .  A
C944       C1172   1.480   1_554  S
C946        O948   1.277       .  A
C946        O952   1.276       .  A
C946       C1012   1.478       .  S
C950        C981   1.524       .  S
In953       O955   2.258       .  S
In953       O964   2.190       .  S
In953       O958   2.197       .  S
In953       O960   2.161   1_554  S
In953      O1111   2.189   1_554  S
In953      O1112   2.256   1_554  S
In953      O1115   2.182   1_554  S
C954       O1110   1.268       .  A
C954        O962   1.273       .  A
C954        C987   1.523       .  S
O956       C1113   1.267       .  A
C957        O964   1.277       .  A
C957        O958   1.276       .  A
C957       C1005   1.472       .  S
C959        O961   1.276       .  A
C959        O965   1.277       .  A
C959        C992   1.474       .  S
O960       C1104   1.268       .  A
O961      In1103   2.189       .  S
O962      In1103   2.256       .  S
C963       O1106   1.267       .  A
C963        C982   1.526       .  S
O965      In1103   2.182       .  S
In966       O968   2.261       .  S
In966       O969   2.167       .  S
In966       O977   2.195       .  S
In966       O971   2.177       .  S
In966       O974   2.188       .  S
In966       O975   2.261       .  S
In966       O978   2.202       .  S
C967        O973   1.266       .  A
C967        C984   1.526       .  S
O968        C976   1.273       .  A
O969        C976   1.265       .  A
C970        O977   1.277       .  A
C970        O971   1.276       .  A
C970        C995   1.473       .  S
C972        O974   1.276       .  A
C972        O978   1.277       .  A
C972       C1002   1.472       .  S
C976        C985   1.527       .  S
C979        C980   1.407       .  D
C979        C981   1.589       .  S
C981        C982   1.404   1_565  D
C983        C984   1.407   1_565  D
C985        C986   1.408       .  D
C986        C990   1.591       .  S
C987        C988   1.405       .  D
C989        C990   1.407       .  D
C991        C992   1.409       .  A
C991        C996   1.406       .  A
C991       Br998   1.934       .  S
C992        C993   1.415       .  A
C993        C994   1.405       .  A
C993      Br1000   1.935       .  S
C994        C995   1.409       .  A
C994       Br999   1.935       .  S
C995        C996   1.414       .  A
C996       Br997   1.934       .  S
C1001      C1002   1.407       .  A
C1001      C1006   1.406       .  A
C1001     Br1008   1.932       .  S
C1002      C1003   1.413       .  A
C1003      C1004   1.406       .  A
C1003     Br1010   1.930       .  S
C1004      C1005   1.407       .  A
C1004     Br1009   1.932       .  S
C1005      C1006   1.413       .  A
C1006     Br1007   1.931       .  S
C1011      C1012   1.410       .  A
C1011      C1016   1.406       .  A
C1011     Br1018   1.936       .  S
C1012      C1013   1.416       .  A
C1013      C1014   1.407       .  A
C1013     Br1020   1.935       .  S
C1014      C1015   1.412       .  A
C1014     Br1019   1.937       .  S
C1015      C1016   1.418       .  A
C1016     Br1017   1.938       .  S
C1021      C1022   1.416       .  A
C1021      C1026   1.405       .  A
C1021     Br1178   1.937       .  S
C1022      C1094   1.480       .  S
C1022      C1023   1.413       .  A
C1023      C1024   1.408       .  A
C1023     Br1030   1.935       .  S
C1024      C1025   1.416       .  A
C1024     Br1029   1.936       .  S
C1025      C1026   1.409       .  A
C1026     Br1027   1.931       .  S
Br1028     C1171   1.937   1_554  S
C1031      C1032   1.409   1_655  A
C1031      C1036   1.405       .  A
C1031     Br1038   1.934       .  S
C1033      C1034   1.406       .  A
C1033     Br1040   1.932       .  S
C1034     Br1039   1.934       .  S
C1035      C1036   1.414       .  A
C1036     Br1037   1.933       .  S
C1041      C1042   1.419       .  A
C1041      C1046   1.406       .  A
C1041     Br1198   1.935       .  S
C1042      C1057   1.501   1_554  S
C1043      C1044   1.412       .  A
C1043     Br1200   1.941       .  S
C1044      C1045   1.420       .  A
C1044     Br1049   1.940       .  S
C1046     Br1047   1.945       .  S
Br1048     C1191   1.935       .  S
Br1050     C1193   1.941       .  S
In1051     O1056   2.183   1_455  S
In1051     O1058   2.166   1_455  S
In1051     O1060   2.257       .  S
In1051     O1063   2.194   1_455  S
C1052      O1058   1.265   1_455  A
C1052      O1060   1.273       .  A
C1052      C1138   1.525   1_455  S
O1053      C1061   1.273       .  A
O1054      C1061   1.266       .  A
C1055      O1056   1.276   1_455  A
C1055      C1182   1.474       .  S
C1057      O1059   1.274       .  A
C1061      C1139   1.525       .  S
In1064     O1066   2.257   1_655  S
In1064     O1067   2.158       .  S
In1064     O1075   2.196       .  S
In1064     O1072   2.190       .  S
C1065      O1071   1.266       .  A
C1065      O1073   1.273       .  A
C1065      C1133   1.525       .  S
O1066      C1074   1.272       .  A
O1067      C1074   1.265   1_655  A
C1068      O1075   1.276       .  A
C1068      C1195   1.498       .  S
C1070      O1072   1.276       .  A
C1070      C1185   1.473       .  S
C1074      C1130   1.523   1_455  S
In1077     O1079   2.256       .  S
In1077     O1080   2.160       .  S
In1077     O1088   2.189       .  S
In1077     O1082   2.181       .  S
In1077     O1084   2.161       .  S
In1077     O1085   2.191       .  S
In1077     O1086   2.256       .  S
In1077     O1089   2.182       .  S
C1078      O1084   1.267       .  A
C1078      O1086   1.272       .  A
C1078      C1140   1.524       .  S
O1079      C1087   1.272       .  A
O1080      C1087   1.268       .  A
C1081      O1088   1.277       .  A
C1081      O1082   1.275       .  A
C1081      C1165   1.480       .  S
C1083      O1085   1.275       .  A
C1083      O1089   1.277       .  A
C1083      C1175   1.480       .  S
C1087      C1136   1.523       .  S
In1090     O1092   2.256       .  S
In1090     O1093   2.163       .  S
In1090     O1101   2.187       .  S
In1090     O1095   2.189       .  S
In1090     O1097   2.163       .  S
In1090     O1098   2.187       .  S
In1090     O1099   2.260       .  S
In1090     O1102   2.187       .  S
C1091      O1097   1.265       .  A
C1091      O1099   1.273       .  A
C1091      C1129   1.526       .  S
O1092      C1100   1.273       .  A
O1093      C1100   1.267       .  A
C1094      O1101   1.276       .  A
C1094      O1095   1.276       .  A
C1096      O1098   1.277       .  A
C1096      O1102   1.276       .  A
C1096      C1162   1.478       .  S
C1100      C1131   1.524       .  S
In1103     O1105   2.258       .  S
In1103     O1114   2.190       .  S
In1103     O1108   2.197       .  S
In1103     O1110   2.161       .  S
C1104      O1112   1.273       .  A
C1104      C1137   1.523       .  S
C1107      O1114   1.277       .  A
C1107      O1108   1.276       .  A
C1107      C1155   1.472       .  S
C1109      O1111   1.276       .  A
C1109      O1115   1.277       .  A
C1109      C1142   1.474       .  S
C1113      C1132   1.526       .  S
In1116     O1118   2.261       .  S
In1116     O1119   2.167       .  S
In1116     O1127   2.195       .  S
In1116     O1121   2.177       .  S
In1116     O1124   2.188       .  S
In1116     O1125   2.261       .  S
In1116     O1128   2.202       .  S
C1117      O1123   1.266       .  A
C1117      C1134   1.526       .  S
O1118      C1126   1.273       .  A
O1119      C1126   1.265       .  A
C1120      O1127   1.277       .  A
C1120      O1121   1.276       .  A
C1120      C1145   1.473       .  S
C1122      O1124   1.276       .  A
C1122      O1128   1.277       .  A
C1122      C1152   1.472       .  S
C1126      C1135   1.527       .  S
C1129      C1130   1.407       .  D
C1129      C1131   1.589       .  S
C1131      C1132   1.404   1_565  D
C1133      C1134   1.407   1_565  D
C1135      C1136   1.408       .  D
C1136      C1140   1.591       .  S
C1137      C1138   1.405       .  D
C1139      C1140   1.407       .  D
C1141      C1142   1.409       .  A
C1141      C1146   1.406       .  A
C1141     Br1148   1.934       .  S
C1142      C1143   1.415       .  A
C1143      C1144   1.405       .  A
C1143     Br1150   1.935       .  S
C1144      C1145   1.409       .  A
C1144     Br1149   1.935       .  S
C1145      C1146   1.414       .  A
C1146     Br1147   1.934       .  S
C1151      C1152   1.407       .  A
C1151      C1156   1.406       .  A
C1151     Br1158   1.932       .  S
C1152      C1153   1.413       .  A
C1153      C1154   1.406       .  A
C1153     Br1160   1.930       .  S
C1154      C1155   1.407       .  A
C1154     Br1159   1.932       .  S
C1155      C1156   1.413       .  A
C1156     Br1157   1.931       .  S
C1161      C1162   1.410       .  A
C1161      C1166   1.406       .  A
C1161     Br1168   1.936       .  S
C1162      C1163   1.416       .  A
C1163      C1164   1.407       .  A
C1163     Br1170   1.935       .  S
C1164      C1165   1.412       .  A
C1164     Br1169   1.937       .  S
C1165      C1166   1.418       .  A
C1166     Br1167   1.938       .  S
C1171      C1172   1.416       .  A
C1171      C1176   1.405       .  A
C1172      C1173   1.413       .  A
C1173      C1174   1.408       .  A
C1173     Br1180   1.935       .  S
C1174      C1175   1.416       .  A
C1174     Br1179   1.936       .  S
C1175      C1176   1.409       .  A
C1176     Br1177   1.931       .  S
C1181      C1182   1.409   1_655  A
C1181      C1186   1.405       .  A
C1181     Br1188   1.934       .  S
C1183      C1184   1.406       .  A
C1183     Br1190   1.932       .  S
C1184     Br1189   1.934       .  S
C1185      C1186   1.414       .  A
C1186     Br1187   1.933       .  S
C1191      C1192   1.419       .  A
C1191      C1196   1.406       .  A
C1193      C1194   1.412       .  A
C1194      C1195   1.420       .  A
C1194     Br1199   1.940       .  S
C1196     Br1197   1.945       .  S
