geometry optimzed in LAMMPS
_audit_creation_date              2020-11-30 
_audit_creation_method            'lammps2cif' 
_symmetry_space_group_name_H-M    'P1' 
_symmetry_Int_Tables_number       1 
_symmetry_cell_setting            triclinic 
loop_ 
_symmetry_equiv_pos_as_xyz 
  x,y,z 
_cell_length_a                    44.70453504 
_cell_length_b                    35.84772463000704 
_cell_length_c                    42.3952778767568 
_cell_angle_alpha                 90.11133894440253 
_cell_angle_beta                  90.05563490690045 
_cell_angle_gamma                 90.16046643384834 
loop_ 
_atom_site_label 
_atom_site_type_symbol 
_atom_site_fract_x 
_atom_site_fract_y 
_atom_site_fract_z 
_atom_site_charge 
C1          C  0.66861895  0.11466155  0.76719522    -0.10200
C2          C  0.65557171  0.08154359  0.75656057    -0.04100
C3          C  0.66694587  0.04644038  0.76453246    -0.10200
C4          C  0.69254712  0.04435236  0.78427561     0.10800
C5          C  0.70614701  0.07791891  0.79525591    -0.02000
C6          C  0.69429127  0.11314332  0.78638324     0.10600
C7          C  0.70819768  0.14596934  0.79714070    -0.12000
C8          C  0.73354786  0.14445944  0.81604362    -0.12000
C9          C  0.74565929  0.11007712  0.82520055     0.10600
C10         C  0.73185780  0.07639435  0.81489022    -0.02000
C11         C  0.70470616  0.00995077  0.79370998    -0.12100
C12         C  0.72974199  0.00846260  0.81358523    -0.12100
C13         C  0.74374399  0.04131903  0.82423528     0.10800
C14         C  0.76940957  0.04054303  0.84389654    -0.10200
C15         C  0.78331530  0.07394846  0.85245234    -0.04100
C16         C  0.77165062  0.10837511  0.84393563    -0.10200
H17         H  0.69960017  0.17320981  0.79101865     0.08000
H18         H  0.74364712  0.17056165  0.82334371     0.08000
H19         H  0.69471646  0.98392889  0.78601938     0.08200
H20         H  0.73828094  0.98139214  0.82034878     0.08200
H21         H  0.63690508  0.08328594  0.74025538     0.04600
H22         H  0.80321914  0.07313187  0.86716339     0.04600
O23         O  0.53199267  0.25475250  0.60246528    -0.80200
O24         O  0.43363692  0.26846118  0.49429464    -0.64900
O25         O  0.47726643  0.26063780  0.57083632    -1.11500
C26         C  0.46223095  0.13163204  0.56031200     1.06700
O27         O  0.40356304  0.21891326  0.49946288    -0.78100
O28         O  0.40602874  0.21031735  0.56373051    -0.65700
Ni29       Ni  0.51370634  0.28930422  0.57335461     1.34900
C30         C  0.41808787  0.21067416  0.59088518     0.85400
O31         O  0.45176529  0.31813484  0.53730340    -0.78700
O32         O  0.49950991  0.33024273  0.54709473    -0.88900
C33         C  0.41166597  0.24866662  0.48543457     0.85000
O34         O  0.53046005  0.26363951  0.53804435    -0.67100
O35         O  0.43581177  0.14303717  0.55460486    -0.86400
C36         C  0.51892589  0.26218207  0.51062304     0.83000
C37         C  0.47283334  0.34124222  0.54220997     1.07400
H38         H  0.47129729  0.20438976  0.51229298     0.39200
O39         O  0.45887646  0.21185705  0.52982718    -1.09100
O40         O  0.44570561  0.20312867  0.59507590    -0.65700
Ni41       Ni  0.48073909  0.20728988  0.56808786     1.26300
O42         O  0.49125249  0.26922539  0.50572667    -0.66000
O43         O  0.48394576  0.15426712  0.56360163    -0.78300
C44         C  0.52444118  0.22419962  0.61558611     0.85200
O45         O  0.50316289  0.20381297  0.60585941    -0.65400
Ni46       Ni  0.42189934  0.18410294  0.52827715     1.27400
Ni47       Ni  0.45567443  0.26518279  0.53237581     1.26100
H48         H  0.46455222  0.26781443  0.58818332     0.39700
O49         O  0.40072556  0.46087676  0.60486438    -0.80200
O50         O  0.50787904  0.45917711  0.50442149    -0.64900
O51         O  0.45662072  0.46165696  0.57630267    -1.11500
C52         C  0.46813483  0.09094056  0.56141837     1.06700
O53         O  0.53875250  0.50197870  0.52453528    -0.78100
O54         O  0.52490908  0.01419573  0.57389484    -0.65700
Ni55       Ni  0.42211462  0.42955918  0.57561393     1.34900
C56         C  0.50999343  0.01372537  0.59932148     0.85400
O57         O  0.48663907  0.40578451  0.54253005    -0.78700
O58         O  0.43887241  0.39149349  0.54822281    -0.88900
C59         C  0.53289397  0.47610536  0.50491476     0.85000
O60         O  0.40671278  0.45576477  0.54038149    -0.67100
O61         O  0.49518925  0.08020826  0.55887135    -0.86400
C62         C  0.41931652  0.45954729  0.51366629     0.85800
C63         C  0.46585315  0.38173830  0.54397356     1.07400
H64         H  0.46543099  0.02006846  0.51409197     0.39200
O65         O  0.47604236  0.01160742  0.53259296    -1.09100
O66         O  0.48199535  0.02038649  0.59981962    -0.65700
Ni67       Ni  0.45055815  0.01462256  0.56832091     1.26300
O68         O  0.44775129  0.45587816  0.50981893    -0.66000
O69         O  0.44652095  0.06780307  0.56361401    -0.78300
C70         C  0.40393494  0.99421507  0.61239422     0.85200
O71         O  0.42390967  0.01693072  0.60327448    -0.65400
Ni72       Ni  0.51295299  0.03881184  0.53601236     1.27400
Ni73       Ni  0.48167224  0.45901841  0.53978691     1.26100
H74         H  0.46835324  0.45583356  0.59479242     0.39700
C75         C  0.24748551  0.17369170  0.74081860    -0.10200
C76         C  0.25700489  0.13772452  0.73284702    -0.04100
C77         C  0.24029979  0.10593324  0.74026708    -0.10200
C78         C  0.21236459  0.11011044  0.75533645     0.10800
C79         C  0.20304656  0.14617637  0.76529313    -0.02000
C80         C  0.22091655  0.17802595  0.75855445     0.10600
C81         C  0.21203570  0.21302042  0.77028066    -0.12000
C82         C  0.18637396  0.21657351  0.78891981    -0.12000
C83         C  0.16775667  0.18569146  0.79475760     0.10600
C84         C  0.17569942  0.15039139  0.78188528    -0.02000
C85         C  0.19367181  0.07928965  0.76100152    -0.12100
C86         C  0.16605527  0.08379784  0.77566787    -0.12100
C87         C  0.15679271  0.11899980  0.78645303     0.10800
C88         C  0.12911036  0.12379434  0.80184808    -0.10200
C89         C  0.12151947  0.15858420  0.81404806    -0.04100
C90         C  0.14118876  0.18904796  0.81278997    -0.10200
H91         H  0.22540739  0.23769882  0.76589252     0.08000
H92         H  0.18065259  0.24391466  0.79795109     0.08000
H93         H  0.20007345  0.05145834  0.75379027     0.08200
H94         H  0.15210400  0.05935195  0.77876119     0.08200
H95         H  0.27709656  0.13439426  0.71879870     0.04600
H96         H  0.10129516  0.16044505  0.82807462     0.04600
O97         O  0.89910856  0.24713970  0.01709079    -0.80200
O98         O  0.01577391  0.26067078  0.10226177    -0.64900
O99         O  0.95920188  0.25435126  0.03551111    -1.11500
C100        C  0.97466116  0.12522540  0.04075746     1.06700
O101        O  0.04340540  0.21024032  0.09191414    -0.78100
O102        O  0.03073548  0.20335853  0.02873063    -0.65700
Ni103      Ni  0.92283617  0.28225253  0.04092118     1.34900
C104        C  0.01456046  0.20530653  0.00410118     0.85400
O105        O  0.99038171  0.31107775  0.06484329    -0.78700
O106        O  0.94168773  0.32336684  0.06351625    -0.88900
C107        C  0.03847392  0.24037367  0.10699170     0.85000
O108        O  0.91306748  0.25685960  0.07889179    -0.67100
O109        O  0.00175054  0.13628930  0.04167254    -0.86400
C110        C  0.92932188  0.25556946  0.10341632     0.85800
C111        C  0.96884084  0.33410367  0.06477405     1.07400
H112        H  0.97440619  0.19699985  0.09064977     0.39200
O113        O  0.98392457  0.20466875  0.07138165    -1.09100
O114        O  0.98654030  0.19799320  0.00450436    -0.65700
Ni115      Ni  0.95613278  0.20108090  0.03740424     1.26300
O116        O  0.95743590  0.26195681  0.10261115    -0.66000
O117        O  0.95306587  0.14809129  0.04134919    -0.78300
C118        C  0.90435400  0.21798690  0.00087185     0.85200
O119        O  0.92787827  0.19872382  0.00398583    -0.65400
Ni120      Ni  0.02023700  0.17643337  0.06598194     1.27400
Ni121      Ni  0.98725967  0.25806880  0.06918140     1.26100
H122        H  0.96863090  0.26224489  0.01604785     0.39700
O123        O  0.03269613  0.45955262  0.00114982    -0.80200
O124        O  0.93967999  0.44783490  0.11368473    -0.64900
O125        O  0.97936592  0.45512191  0.03461938    -1.11500
C126        C  0.96812394  0.08468343  0.04071034     1.06700
O127        O  0.90968586  0.49718181  0.10910760    -0.78100
O128        O  0.90997151  0.00860977  0.03628304    -0.65700
Ni129      Ni  0.01495804  0.42550487  0.03042094     1.34900
C130        C  0.92166924  0.00721382  0.00902257     0.85400
O131        O  0.95472178  0.39789979  0.06994994    -0.78700
O132        O  0.00170035  0.38527565  0.05760552    -0.88900
C133        C  0.91777136  0.46733713  0.12286367     0.85000
O134        O  0.03392422  0.45078373  0.06439152    -0.67100
O135        O  0.94162095  0.07417799  0.04739120    -0.86400
C136        C  0.02434911  0.45203875  0.09254612     0.85800
C137        C  0.97540454  0.37460977  0.06452290     1.07400
H138        H  0.97588010  0.01317820  0.08758668     0.39200
O139        O  0.96314212  0.00511951  0.07044128    -1.09100
O140        O  0.94959895  0.01263948  0.00454395    -0.65700
Ni141      Ni  0.98473256  0.00840203  0.03169071     1.26300
O142        O  0.99682832  0.44595811  0.09926643    -0.66000
O143        O  0.98900940  0.06150253  0.03541163    -0.78300
C144        C  0.02838612  0.98930618  0.98478603     0.85200
O145        O  0.00718265  0.01048310  0.99342518    -0.65400
Ni146      Ni  0.92642210  0.03289562  0.07239986     1.27400
Ni147      Ni  0.95988182  0.45082308  0.07443289     1.26100
H148        H  0.96557666  0.44832338  0.01800278     0.39700
C149        C  0.31119331  0.36300164  0.30528060    -0.10200
C150        C  0.32159296  0.39729652  0.31604722    -0.04100
C151        C  0.30609480  0.43035696  0.31037613    -0.10200
C152        C  0.28008358  0.42958214  0.29095338     0.10800
C153        C  0.26999544  0.39476912  0.27854473    -0.02000
C154        C  0.28559282  0.36137113  0.28590180     0.10600
C155        C  0.27546200  0.32725572  0.27353497    -0.12000
C156        C  0.24996818  0.32553297  0.25486525    -0.12000
C157        C  0.23384539  0.35793162  0.24760275     0.10600
C158        C  0.24392990  0.39304643  0.25932299    -0.02000
C159        C  0.26385927  0.46202624  0.28361072    -0.12100
C160        C  0.23830304  0.46040576  0.26428820    -0.12100
C161        C  0.22789230  0.42621858  0.25201745     0.10800
C162        C  0.20206337  0.42374058  0.23248028    -0.10200
C163        C  0.19223962  0.38874451  0.22220435    -0.04100
C164        C  0.20745318  0.35600949  0.22949908    -0.10200
H165        H  0.28727651  0.30151280  0.27812258     0.08000
H166        H  0.24293401  0.29844183  0.24626945     0.08000
H167        H  0.27099419  0.48888930  0.29264910     0.08200
H168        H  0.22660084  0.48608589  0.25911739     0.08200
H169        H  0.34124167  0.39799115  0.33115113     0.04600
H170        H  0.17225017  0.38697670  0.20768997     0.04600
C171        C  0.65857096  0.34359366  0.33635092    -0.10200
C172        C  0.64836304  0.30878636  0.34601466    -0.04100
C173        C  0.66479240  0.27641591  0.34048452    -0.10200
C174        C  0.69120168  0.27832668  0.32210598     0.10800
C175        C  0.70175470  0.31379857  0.31190458    -0.02000
C176        C  0.68575352  0.34666263  0.31986044     0.10600
C177        C  0.69725100  0.38161829  0.31117187    -0.12000
C178        C  0.72393709  0.38441439  0.29453054    -0.12000
C179        C  0.73964528  0.35229463  0.28533358     0.10600
C180        C  0.72847066  0.31655184  0.29403093    -0.02000
C181        C  0.70718497  0.24619587  0.31351011    -0.12100
C182        C  0.73276639  0.24875180  0.29460049    -0.12100
C183        C  0.74378692  0.28362345  0.28467390     0.10800
C184        C  0.76993763  0.28676050  0.26604219    -0.10200
C185        C  0.78065261  0.32226028  0.25817537    -0.04100
C186        C  0.76640490  0.35492146  0.26790001    -0.10200
H187        H  0.68572130  0.40714123  0.31731103     0.08000
H188        H  0.73203038  0.41205149  0.28878641     0.08000
H189        H  0.69963098  0.21884180  0.32087811     0.08200
H190        H  0.74417280  0.22323075  0.28821624     0.08200
H191        H  0.62783899  0.30708906  0.35964833     0.04600
H192        H  0.79984598  0.32457962  0.24265563     0.04600
C193        C  0.82532688  0.42272955  0.23630810     0.19300
C194        C  0.85670861  0.42158257  0.23728951    -0.18700
C195        C  0.87373271  0.43895695  0.21399506    -0.11000
C196        C  0.85966589  0.45796279  0.18917593     0.21600
C197        C  0.82848560  0.46200137  0.18960372    -0.20400
C198        C  0.81134836  0.44432780  0.21281656    -0.11200
C199        C  0.87690792  0.47237632  0.16199005    -0.15400
C200        C  0.90103776  0.45437574  0.15069792    -0.29200
C201        C  0.80875490  0.39671733  0.25723697    -0.03500
C202        C  0.77899275  0.39085292  0.25643826    -0.40000
H203        H  0.86813326  0.40554621  0.25525647     0.12800
H204        H  0.89785423  0.43664716  0.21500132     0.12400
H205        H  0.81725161  0.47714591  0.17096526     0.11800
H206        H  0.78730668  0.44639497  0.21118590     0.12100
H207        H  0.86835504  0.49669368  0.14969671     0.14800
H208        H  0.90853149  0.42876499  0.16180306     0.13600
H209        H  0.82222988  0.37752203  0.27108793     0.11300
H210        H  0.76409480  0.40981172  0.24432650     0.13300
C211        C  0.10006852  0.47282290  0.13495405     0.19300
C212        C  0.12829773  0.48277372  0.12300594    -0.18700
C213        C  0.15384079  0.48159241  0.14200968    -0.11000
C214        C  0.15202404  0.47088738  0.17374465     0.21600
C215        C  0.12356433  0.46291886  0.18644487    -0.20400
C216        C  0.09782782  0.46384121  0.16724530    -0.11200
C217        C  0.18039012  0.46071471  0.19021753    -0.15400
C218        C  0.18344709  0.45562751  0.22161127    -0.29200
C219        C  0.07476056  0.46953290  0.11191796    -0.03500
C220        C  0.04629785  0.45910591  0.11839763    -0.40000
H221        H  0.13091264  0.48988601  0.09833225     0.12800
H222        H  0.17540719  0.48730619  0.13139502     0.12400
H223        H  0.12132720  0.45355995  0.21057843     0.11800
H224        H  0.07664300  0.45593862  0.17754113     0.12100
H225        H  0.19813626  0.45016561  0.17510734     0.14800
H226        H  0.16662935  0.46620456  0.23772516     0.13600
H227        H  0.08049666  0.47460989  0.08738267     0.11300
H228        H  0.03908774  0.45460396  0.14249098     0.13300
C229        C  0.86887446  0.23537088  0.16685329     0.19300
C230        C  0.83764925  0.23093932  0.16514509    -0.18700
C231        C  0.81986011  0.23366074  0.19220730    -0.11000
C232        C  0.83300610  0.24068521  0.22180792     0.21600
C233        C  0.86435069  0.24232309  0.22383096    -0.20400
C234        C  0.88213819  0.23961018  0.19678497    -0.11200
C235        C  0.81534458  0.25401352  0.24935962    -0.15400
C236        C  0.78518943  0.25457627  0.25075714    -0.29200
C237        C  0.88602102  0.23801556  0.13671385    -0.03500
C238        C  0.91506288  0.24814616  0.13432322    -0.40000
H239        H  0.82675012  0.22731669  0.14250445     0.12800
H240        H  0.79584342  0.23271302  0.18933868     0.12400
H241        H  0.87511395  0.24782357  0.24628028     0.11800
H242        H  0.90605307  0.24224142  0.19961117     0.12100
H243        H  0.82752697  0.27094248  0.26643091     0.14800
H244        H  0.77179372  0.23657689  0.23573776     0.13600
H245        H  0.87340559  0.23366113  0.11507844     0.11300
H246        H  0.92865038  0.25265349  0.15514277     0.13300
C247        C  0.14772097  0.28660357  0.20194255     0.19300
C248        C  0.11740171  0.28240530  0.20978768    -0.18700
C249        C  0.09759601  0.26485317  0.18908207    -0.11000
C250        C  0.10775491  0.25098583  0.16002537     0.21600
C251        C  0.13840288  0.25247279  0.15314056    -0.20400
C252        C  0.15827382  0.27042608  0.17375984    -0.11200
C253        C  0.08653658  0.23654381  0.13606899    -0.15400
C254        C  0.05980167  0.25277070  0.13139052    -0.29200
C255        C  0.16588533  0.31260068  0.22145342    -0.03500
C256        C  0.19495075  0.32065581  0.21675728    -0.40000
H257        H  0.10866902  0.29434248  0.23138705     0.12800
H258        H  0.07419331  0.26299726  0.19546758     0.12400
H259        H  0.14670879  0.24156080  0.13097989     0.11800
H260        H  0.18137304  0.27306042  0.16663276     0.12100
H261        H  0.09386921  0.21422534  0.12054251     0.14800
H262        H  0.05351490  0.27686218  0.14547387     0.13600
H263        H  0.15376397  0.32946550  0.23854009     0.11300
H264        H  0.20885399  0.30395069  0.20133265     0.13300
C265        C  0.07159532  0.23106657  0.93841174     0.19300
C266        C  0.10218543  0.22363826  0.93414192    -0.18700
C267        C  0.11529386  0.22592218  0.90412659    -0.11000
C268        C  0.09806817  0.23624732  0.87769271     0.21600
C269        C  0.06808380  0.24640921  0.88252473    -0.20400
C270        C  0.05500906  0.24404187  0.91244870    -0.11200
C271        C  0.10821393  0.22952444  0.84460834    -0.15400
C272        C  0.13625408  0.21946850  0.83639624    -0.29200
C273        C  0.05755663  0.22374532  0.96980118    -0.03500
C274        C  0.02828465  0.21526519  0.97337906    -0.40000
H275        H  0.11563607  0.21408677  0.95378405     0.12800
H276        H  0.13832050  0.21730312  0.90157112     0.12400
H277        H  0.05422177  0.25446453  0.86271261     0.11800
H278        H  0.03172103  0.25158828  0.91490372     0.12100
H279        H  0.09051148  0.22474888  0.82743517     0.14800
H280        H  0.15497230  0.22640930  0.85163823     0.13600
H281        H  0.07216059  0.22284213  0.99028947     0.11300
H282        H  0.01370000  0.21433511  0.95292938     0.13300
C283        C  0.05929589  0.03392766  0.90902672     0.19300
C284        C  0.04698936  0.04389878  0.87981112    -0.18700
C285        C  0.06557826  0.05364624  0.85454744    -0.11000
C286        C  0.09692388  0.05440314  0.85839281     0.21600
C287        C  0.10907113  0.04355358  0.88746103    -0.20400
C288        C  0.09055978  0.03364543  0.91252188    -0.11200
C289        C  0.11779376  0.07027795  0.83463184    -0.15400
C290        C  0.10910547  0.09286292  0.81114146    -0.29200
C291        C  0.03933231  0.02477247  0.93586513    -0.03500
C292        C  0.04718756  0.99944700  0.95763075    -0.40000
H293        H  0.02295243  0.04415285  0.87655532     0.12800
H294        H  0.05514908  0.06103668  0.83244245     0.12400
H295        H  0.13303679  0.04422387  0.89128316     0.11800
H296        H  0.10082017  0.02703139  0.93494938     0.12100
H297        H  0.14151439  0.06963359  0.84040612     0.14800
H298        H  0.08557108  0.09664110  0.80601642     0.13600
H299        H  0.01748608  0.03792011  0.93707528     0.11300
H300        H  0.06790279  0.98403220  0.95480321     0.13300
C301        C  0.62182389  0.40959820  0.39380939     0.19300
C302        C  0.62920412  0.42013665  0.42475413    -0.18700
C303        C  0.60708376  0.43171372  0.44577330    -0.11000
C304        C  0.57698743  0.43326854  0.43614765     0.21600
C305        C  0.56967559  0.42399771  0.40499408    -0.20400
C306        C  0.59180247  0.41256768  0.38390104    -0.11200
C307        C  0.55260604  0.44290491  0.45831409    -0.15400
C308        C  0.55695622  0.46550530  0.48311396    -0.29200
C309        C  0.64524516  0.39089562  0.37466835    -0.03500
C310        C  0.64043193  0.37578772  0.34611777    -0.40000
H311        H  0.65201427  0.41781204  0.43317798     0.12800
H312        H  0.61352714  0.43781125  0.46984175     0.12400
H313        H  0.54664589  0.42507714  0.39706457     0.11800
H314        H  0.58476507  0.40490987  0.36041643     0.12100
H315        H  0.53025563  0.43240591  0.45333266     0.14800
H316        H  0.57870396  0.47827544  0.48698859     0.13600
H317        H  0.66620520  0.38433674  0.38648051     0.11300
H318        H  0.61985752  0.38027218  0.33325562     0.13300
C319        C  0.33957485  0.47481107  0.38186917     0.19300
C320        C  0.33165532  0.48395342  0.41292532    -0.18700
C321        C  0.35324543  0.48576589  0.43686134    -0.11000
C322        C  0.38347989  0.47713280  0.43066527     0.21600
C323        C  0.39173090  0.47039334  0.39913177    -0.20400
C324        C  0.37007992  0.46917847  0.37499273    -0.11200
C325        C  0.40638410  0.47314408  0.45654678    -0.15400
C326        C  0.39863611  0.46668266  0.48684094    -0.29200
C327        C  0.31533156  0.46376923  0.35936468    -0.03500
C328        C  0.31808817  0.46333693  0.32764884    -0.40000
H329        H  0.30838581  0.48834435  0.41897197     0.12800
H330        H  0.34575880  0.49308775  0.46027970     0.12400
H331        H  0.41478075  0.46414050  0.39337735     0.11800
H332        H  0.37702580  0.46127208  0.35146883     0.12100
H333        H  0.42993767  0.47318520  0.45026334     0.14800
H334        H  0.37514444  0.46495741  0.49292065     0.13600
H335        H  0.29658268  0.44868347  0.36963305     0.11300
H336        H  0.33664661  0.47806148  0.31678726     0.13300
C337        C  0.29938619  0.03550655  0.71455586     0.19300
C338        C  0.33042807  0.03559052  0.71971257    -0.18700
C339        C  0.34978540  0.01896003  0.69812731    -0.11000
C340        C  0.33848689  0.00158177  0.67091435     0.21600
C341        C  0.30740399  0.99851436  0.66701769    -0.20400
C342        C  0.28792570  0.01556512  0.68850669    -0.11200
C343        C  0.35878995  0.98779050  0.64589075    -0.15400
C344        C  0.38399827  0.00629909  0.63812683    -0.29200
C345        C  0.28100471  0.06088928  0.73438153    -0.03500
C346        C  0.25212843  0.06952727  0.72902760    -0.40000
H347        H  0.33809622  0.55463414  0.74103665     0.12800
H348        H  0.37306975  0.52455646  0.70511730     0.12400
H349        H  0.29822720  0.98459604  0.64645610     0.11800
H350        H  0.26420579  0.01423484  0.68376151     0.12100
H351        H  0.35181150  0.96367655  0.63213343     0.14800
H352        H  0.38658074  0.53317264  0.65156541     0.13600
H353        H  0.29309735  0.07786422  0.75149686     0.11300
H354        H  0.23832375  0.05321504  0.71312768     0.13300
C355        C  0.58881378  0.23750855  0.45954066     0.19300
C356        C  0.61899037  0.23093089  0.46703368    -0.18700
C357        C  0.64085650  0.22937537  0.44345458    -0.11000
C358        C  0.63320392  0.23388418  0.41159507     0.21600
C359        C  0.60276065  0.23834335  0.40378090    -0.20400
C360        C  0.58083814  0.24009998  0.42742799    -0.11200
C361        C  0.65764210  0.24155437  0.38850089    -0.15400
C362        C  0.65363938  0.24278874  0.35700948    -0.29200
C363        C  0.56726168  0.24350593  0.48614401    -0.03500
C364        C  0.53823126  0.25337468  0.48301884    -0.40000
H365        H  0.62595687  0.22857090  0.49142818     0.12800
H366        H  0.66408715  0.22640817  0.45028733     0.12400
H367        H  0.59587078  0.24290847  0.37964123     0.11800
H368        H  0.55798597  0.24482066  0.42024691     0.12100
H369        H  0.67744119  0.25518886  0.39810610     0.14800
H370        H  0.63426887  0.22920348  0.34662725     0.13600
H371        H  0.57628388  0.24109403  0.50986683     0.11300
H372        H  0.52814476  0.25585684  0.45989115     0.13300
C373        C  0.32697422  0.28568663  0.36370642     0.19300
C374        C  0.31003436  0.27414245  0.38986301    -0.18700
C375        C  0.32402688  0.25931078  0.41652579    -0.11000
C376        C  0.35522771  0.25630678  0.41762561     0.21600
C377        C  0.37205593  0.26534901  0.39075107    -0.20400
C378        C  0.35808186  0.27954360  0.36392079    -0.11200
C379        C  0.37004601  0.24430150  0.44705723    -0.15400
C380        C  0.39539627  0.26074634  0.45707312    -0.29200
C381        C  0.31174370  0.30743940  0.33858985    -0.03500
C382        C  0.32638370  0.32994331  0.31843480    -0.40000
H383        H  0.28602751  0.27815740  0.39026090     0.12800
H384        H  0.31062514  0.25185692  0.43684664     0.12400
H385        H  0.39610769  0.26180389  0.39061261     0.11800
H386        H  0.37196905  0.28630492  0.34389084     0.12100
H387        H  0.35930830  0.22296317  0.46130540     0.14800
H388        H  0.40478801  0.28388071  0.44378584     0.13600
H389        H  0.28755940  0.31009729  0.34022030     0.11300
H390        H  0.35059595  0.33055517  0.31795012     0.13300
C391        C  0.31208253  0.22062500  0.69863668     0.19300
C392        C  0.34298446  0.22480417  0.70309961    -0.18700
C393        C  0.36213972  0.22974812  0.67740024    -0.11000
C394        C  0.35083580  0.22964000  0.64635872     0.21600
C395        C  0.31965064  0.22849789  0.64209566    -0.20400
C396        C  0.30041996  0.22396462  0.66791607    -0.11200
C397        C  0.37061093  0.22781357  0.61798612    -0.15400
C398        C  0.39971504  0.21799614  0.61920731    -0.29200
C399        C  0.29406237  0.20502933  0.72495903    -0.03500
C400        C  0.26395134  0.20534135  0.72608801    -0.40000
H401        H  0.35254262  0.22235221  0.72649773     0.12800
H402        H  0.38578635  0.23228584  0.68218149     0.12400
H403        H  0.31020367  0.22884729  0.61855675     0.11800
H404        H  0.27677085  0.22023570  0.66341980     0.12100
H405        H  0.36023571  0.23165900  0.59502903     0.14800
H406        H  0.41058021  0.21309358  0.64164495     0.13600
H407        H  0.30593085  0.18714673  0.74144186     0.11300
H408        H  0.25131244  0.22448838  0.71145842     0.13300
C409        C  0.85073195  0.99021051  0.95743746     0.19300
C410        C  0.82103093  0.98050654  0.96463861    -0.18700
C411        C  0.79867223  0.98148891  0.94154599    -0.11000
C412        C  0.80535993  0.99184453  0.91045996     0.21600
C413        C  0.83536138  0.99983411  0.90271315    -0.20400
C414        C  0.85778574  0.99907888  0.92591941    -0.11200
C415        C  0.78012539  0.00166069  0.88902263    -0.15400
C416        C  0.78296749  0.00659919  0.85767467    -0.29200
C417        C  0.87254655  0.99360781  0.98409397    -0.03500
C418        C  0.90215723  0.00043415  0.98116225    -0.40000
H419        H  0.81093614  0.49573607  0.00391314     0.12800
H420        H  0.77575430  0.97583318  0.94835958     0.12400
H421        H  0.84133997  0.00918435  0.87930135     0.11800
H422        H  0.88015201  0.00725129  0.91917813     0.12100
H423        H  0.76032931  0.01302806  0.90040130     0.14800
H424        H  0.80234159  0.99539710  0.84555444     0.13600
H425        H  0.86251071  0.49026958  0.01875643     0.11300
H426        H  0.91248993  0.00185845  0.95809120     0.13300
C427        C  0.79571339  0.18338159  0.90186271     0.19300
C428        C  0.78485278  0.19100705  0.93229132    -0.18700
C429        C  0.80397605  0.20492530  0.95567916    -0.11000
C430        C  0.83431920  0.21080308  0.94907136     0.21600
C431        C  0.84469041  0.20601352  0.91812061    -0.20400
C432        C  0.82550617  0.19294676  0.89461542    -0.11200
C433        C  0.85509705  0.22153881  0.97461742    -0.15400
C434        C  0.88247259  0.20628020  0.97684607    -0.29200
C435        C  0.77647535  0.16178721  0.87974688    -0.03500
C436        C  0.78784410  0.14129654  0.85605411    -0.40000
H437        H  0.76191422  0.18446190  0.93842209     0.12800
H438        H  0.79544699  0.20928196  0.97930506     0.12400
H439        H  0.86777336  0.21198032  0.91219022     0.11800
H440        H  0.83448179  0.18958310  0.87113401     0.12100
H441        H  0.84737353  0.24108605  0.99243718     0.14800
H442        H  0.88916205  0.18468453  0.96027832     0.13600
H443        H  0.75318106  0.15746465  0.88620453     0.11300
H444        H  0.81154531  0.14212090  0.85084066     0.13300
C445        C  0.57115944  0.99209805  0.66199724     0.19300
C446        C  0.60255234  0.99009655  0.66066024    -0.18700
C447        C  0.61992046  0.99308199  0.68812749    -0.11000
C448        C  0.60617082  0.99784743  0.71771708     0.21600
C449        C  0.57479348  0.99663565  0.71927763    -0.20400
C450        C  0.55745822  0.99356064  0.69187501    -0.11200
C451        C  0.62284466  0.01181700  0.74586565    -0.15400
C452        C  0.65294813  0.01380210  0.74828589    -0.29200
C453        C  0.55394675  0.99488342  0.63178698    -0.03500
C454        C  0.52538120  0.00690527  0.62977929    -0.40000
H455        H  0.60794044  0.48688520  0.65161103     0.12800
H456        H  0.64397536  0.99425981  0.68568824     0.12400
H457        H  0.56354446  0.00014436  0.74171077     0.11800
H458        H  0.53341813  0.99357531  0.69438926     0.12100
H459        H  0.60975684  0.02785604  0.76271512     0.14800
H460        H  0.66716144  0.99672030  0.73343937     0.13600
H461        H  0.56240006  0.49520600  0.62252081     0.11300
H462        H  0.51278119  0.01329609  0.65090523     0.13300
C463        C  0.57760460  0.21722267  0.68663179     0.19300
C464        C  0.60796208  0.22551838  0.69128519    -0.18700
C465        C  0.62410956  0.20778066  0.71524259    -0.11000
C466        C  0.60988279  0.18168507  0.73506620     0.21600
C467        C  0.57889543  0.17641823  0.73222195    -0.20400
C468        C  0.56288882  0.19397816  0.70831783    -0.11200
C469        C  0.62632178  0.15594878  0.75622586    -0.15400
C470        C  0.65600391  0.15012613  0.75515160    -0.29200
C471        C  0.56198964  0.23154457  0.65831545    -0.03500
C472        C  0.54073091  0.21127291  0.64365779    -0.40000
H473        H  0.61954610  0.24418445  0.67533728     0.12800
H474        H  0.64775062  0.21365049  0.71722010     0.12400
H475        H  0.56722122  0.15703954  0.74748905     0.11800
H476        H  0.53914859  0.18843031  0.70631394     0.12100
H477        H  0.61290207  0.13664276  0.77009480     0.14800
H478        H  0.67082922  0.16851044  0.74223882     0.13600
H479        H  0.56919222  0.25802085  0.64841648     0.11300
H480        H  0.53468620  0.18393248  0.65267071     0.13300
C481        C  0.67012610  0.61297340  0.76332634    -0.10200
C482        C  0.65547011  0.57936475  0.75729641    -0.04100
C483        C  0.66449221  0.54570711  0.77102156    -0.10200
C484        C  0.68978906  0.54549231  0.79125242     0.10800
C485        C  0.70499637  0.57961477  0.79754264    -0.02000
C486        C  0.69511172  0.61340451  0.78346655     0.10600
C487        C  0.71001795  0.64695318  0.79038368    -0.12000
C488        C  0.73434359  0.64751108  0.81066051    -0.12000
C489        C  0.74465756  0.61453190  0.82463136     0.10600
C490        C  0.73003912  0.58016366  0.81809603    -0.02000
C491        C  0.70002169  0.51260985  0.80577114    -0.12100
C492        C  0.72471821  0.51320552  0.82618917    -0.12100
C493        C  0.74005696  0.54666465  0.83262492     0.10800
C494        C  0.76483473  0.54817925  0.85356613    -0.10200
C495        C  0.77917661  0.58225893  0.85895558    -0.04100
C496        C  0.76908226  0.61516215  0.84539110    -0.10200
H497        H  0.70283647  0.67322782  0.78043170     0.08000
H498        H  0.74504101  0.67410116  0.81531175     0.08000
H499        H  0.68878393  0.48625405  0.80164255     0.08200
H500        H  0.73170145  0.48731080  0.83700769     0.08200
H501        H  0.63708487  0.57928690  0.74055985     0.04600
H502        H  0.79811106  0.58345150  0.87501180     0.04600
O503        O  0.52982302  0.75662901  0.59898845    -0.80200
O504        O  0.42975589  0.76660600  0.49251338    -0.64900
O505        O  0.47420130  0.76191792  0.56867712    -1.11500
C506        C  0.45967269  0.63215824  0.56118738     1.06700
O507        O  0.39819498  0.71932121  0.50105430    -0.78100
O508        O  0.40231739  0.70844135  0.56507102    -0.65700
Ni509      Ni  0.51097798  0.79019387  0.56948457     1.34900
C510        C  0.41498119  0.71016725  0.59189382     0.85400
O511        O  0.44858493  0.81793169  0.53360562    -0.78700
O512        O  0.49652598  0.83009769  0.54233441    -0.88900
C513        C  0.40670729  0.74781058  0.48543292     0.85000
O514        O  0.52704814  0.76317163  0.53455724    -0.67100
O515        O  0.43326214  0.64219078  0.55356372    -0.86400
C516        C  0.51507801  0.76098894  0.50739027     0.83000
C517        C  0.46985357  0.84101220  0.53740742     1.07400
H518        H  0.46733058  0.70335962  0.51212492     0.39200
O519        O  0.45504308  0.71156219  0.52951691    -1.09100
O520        O  0.44300560  0.70504557  0.59545369    -0.65700
Ni521      Ni  0.47746389  0.70854768  0.56765708     1.26300
O522        O  0.48727946  0.76757132  0.50294399    -0.66000
O523        O  0.48079419  0.65554599  0.56487405    -0.78300
C524        C  0.52224785  0.72699921  0.61349464     0.85200
O525        O  0.50033746  0.70675298  0.60526764    -0.65400
Ni526      Ni  0.41798616  0.68383304  0.52859969     1.27400
Ni527      Ni  0.45215441  0.76487540  0.53036295     1.26100
H528        H  0.46176858  0.76994273  0.58598784     0.39700
O529        O  0.40041986  0.96185719  0.60060362    -0.80200
O530        O  0.50344173  0.95840417  0.49573962    -0.64900
O531        O  0.45591370  0.96105344  0.57048931    -1.11500
C532        C  0.46661433  0.59184284  0.56401590     1.06700
O533        O  0.53508368  0.00285100  0.51171551    -0.78100
O534        O  0.52392231  0.51874395  0.58420971    -0.65700
Ni535      Ni  0.42084138  0.92980228  0.57129221     1.34900
C536        C  0.50729055  0.51809802  0.60837514     0.85400
O537        O  0.48384950  0.90531655  0.53505387    -0.78700
O538        O  0.43636075  0.89138029  0.54362769    -0.88900
C539        C  0.52792356  0.97624217  0.49330923     0.85000
O540        O  0.40427115  0.95568185  0.53668278    -0.67100
O541        O  0.49408549  0.58232630  0.56261494    -0.86400
C542        C  0.41591986  0.95983839  0.50960912     0.85800
C543        C  0.46308923  0.88146956  0.53821008     1.07400
H544        H  0.46846238  0.51982180  0.51972036     0.39200
O545        O  0.47802719  0.51184969  0.53901917    -1.09100
O546        O  0.47915094  0.52299317  0.60652898    -0.65700
Ni547      Ni  0.45029852  0.51509646  0.57272972     1.26300
O548        O  0.44412212  0.95615174  0.50450289    -0.66000
O549        O  0.44553049  0.56795667  0.56647859    -0.78300
C550        C  0.40275609  0.49393495  0.61564855     0.85200
O551        O  0.42154747  0.51765574  0.60568268    -0.65400
Ni552      Ni  0.51435432  0.53969643  0.54413618     1.27400
Ni553      Ni  0.47923339  0.95857230  0.53270157     1.26100
H554        H  0.46838633  0.95437241  0.58821806     0.39700
C555        C  0.24365895  0.67113734  0.74056711    -0.10200
C556        C  0.25386946  0.63548270  0.73250402    -0.04100
C557        C  0.23742047  0.60326822  0.73912702    -0.10200
C558        C  0.20914888  0.60648091  0.75356145     0.10800
C559        C  0.19886487  0.64218939  0.76331579    -0.02000
C560        C  0.21628737  0.67462893  0.75714298     0.10600
C561        C  0.20618987  0.70933362  0.76836444    -0.12000
C562        C  0.17981232  0.71206609  0.78596908    -0.12000
C563        C  0.16190455  0.68047995  0.79165342     0.10600
C564        C  0.17115262  0.64536566  0.77942033    -0.02000
C565        C  0.19119936  0.57492941  0.75905299    -0.12100
C566        C  0.16358049  0.57824446  0.77389475    -0.12100
C567        C  0.15330781  0.61308025  0.78440366     0.10800
C568        C  0.12568997  0.61654061  0.80008179    -0.10200
C569        C  0.11665044  0.65116115  0.81137018    -0.04100
C570        C  0.13492258  0.68287297  0.80914237    -0.10200
H571        H  0.21909639  0.73447891  0.76434788     0.08000
H572        H  0.17315238  0.73926967  0.79455450     0.08000
H573        H  0.19835219  0.54737163  0.75187118     0.08200
H574        H  0.15038786  0.55320322  0.77732330     0.08200
H575        H  0.27447707  0.63267223  0.71922499     0.04600
H576        H  0.09641443  0.65210238  0.82544683     0.04600
O577        O  0.90025610  0.74991391  0.01770379    -0.80200
O578        O  0.01630651  0.76266298  0.10332187    -0.64900
O579        O  0.95933551  0.75425092  0.03745234    -1.11500
C580        C  0.97457823  0.62527810  0.04736342     1.06700
O581        O  0.04575560  0.71530152  0.08915500    -0.78100
O582        O  0.02894170  0.70245281  0.02781439    -0.65700
Ni583      Ni  0.92385648  0.78396565  0.04221688     1.34900
C584        C  0.01124169  0.70215252  0.00433137     0.85400
O585        O  0.99129615  0.81212046  0.06483223    -0.78700
O586        O  0.94286624  0.82436815  0.06539650    -0.88900
C587        C  0.04023728  0.74416177  0.10574731     0.85000
O588        O  0.91338415  0.75850437  0.07987423    -0.67100
O589        O  0.00171507  0.63632972  0.04716082    -0.86400
C590        C  0.92944679  0.75710514  0.10456185     0.85800
C591        C  0.96993427  0.83527077  0.06492163     1.07400
H592        H  0.97658918  0.69902868  0.09412163     0.39200
O593        O  0.98495194  0.70616751  0.07409895    -1.09100
O594        O  0.98341954  0.69497081  0.00722898    -0.65700
Ni595      Ni  0.95551473  0.70090716  0.04204103     1.26300
O596        O  0.95762563  0.76374216  0.10402224    -0.66000
O597        O  0.95284006  0.64808644  0.04833313    -0.78300
C598        C  0.90354952  0.71807941  0.00496133     0.85200
O599        O  0.92529118  0.69658577  0.01079644    -0.65400
Ni600      Ni  0.02135539  0.67872511  0.06736390     1.27400
Ni601      Ni  0.98775321  0.75927017  0.07060737     1.26100
H602        H  0.96871984  0.76065313  0.01757551     0.39700
O603        O  0.03496902  0.95913240  0.99878964    -0.80200
O604        O  0.93811361  0.95024861  0.10823776    -0.64900
O605        O  0.98049010  0.95493112  0.03054320    -1.11500
C606        C  0.96829429  0.58465465  0.04784519     1.06700
O607        O  0.90666415  0.99731545  0.09967852    -0.78100
O608        O  0.90990153  0.50880180  0.04541947    -0.65700
Ni609      Ni  0.01668971  0.92606025  0.02874918     1.34900
C610        C  0.92026766  0.50875747  0.01751500     0.85400
O611        O  0.95531774  0.89892086  0.06679550    -0.78700
O612        O  0.00284081  0.88653756  0.05660275    -0.88900
C613        C  0.91480266  0.96853560  0.11498802     0.85000
O614        O  0.03398587  0.95353368  0.06270328    -0.67100
O615        O  0.94207489  0.57397941  0.05533782    -0.86400
C616        C  0.02315210  0.95589215  0.09032156     0.85800
C617        C  0.97640672  0.87578048  0.06308198     1.07400
H618        H  0.97779346  0.51109222  0.09338519     0.39200
O619        O  0.96425769  0.50402845  0.07660431    -1.09100
O620        O  0.94798467  0.51428695  0.01173524    -0.65700
Ni621      Ni  0.98425600  0.50849081  0.03699110     1.26300
O622        O  0.99558671  0.94894645  0.09601880    -0.66000
O623        O  0.98905950  0.56150951  0.04181128    -0.78300
C624        C  0.02622490  0.49037822  0.98822396     0.85200
O625        O  0.00535078  0.51155284  0.99781353    -0.65400
Ni626      Ni  0.92809275  0.53256519  0.08086062     1.27400
Ni627      Ni  0.95959532  0.95194145  0.06969307     1.26100
H628        H  0.96743361  0.94721265  0.01356618     0.39700
C629        C  0.30278960  0.87145840  0.31101885    -0.10200
C630        C  0.31276732  0.90597190  0.32177116    -0.04100
C631        C  0.29817308  0.93909375  0.31389584    -0.10200
C632        C  0.27325294  0.93807674  0.29320627     0.10800
C633        C  0.26377202  0.90316259  0.28070111    -0.02000
C634        C  0.27865426  0.86972772  0.28961601     0.10600
C635        C  0.26943730  0.83561522  0.27652048    -0.12000
C636        C  0.24579941  0.83407970  0.25527578    -0.12000
C637        C  0.23034255  0.86656189  0.24665445     0.10600
C638        C  0.23913947  0.90148613  0.25958402    -0.02000
C639        C  0.25746387  0.97051137  0.28485602    -0.12100
C640        C  0.23265513  0.96871650  0.26462728    -0.12100
C641        C  0.22312435  0.93450921  0.25173070     0.10800
C642        C  0.19822688  0.93199515  0.23098261    -0.10200
C643        C  0.19020217  0.89728427  0.21850696    -0.04100
C644        C  0.20578549  0.86485925  0.22597546    -0.10200
H645        H  0.28069029  0.80982187  0.28230969     0.08000
H646        H  0.23956372  0.80706521  0.24584391     0.08000
H647        H  0.26415414  0.99746401  0.29407624     0.08200
H648        H  0.22108708  0.99433546  0.25892755     0.08200
H649        H  0.33160878  0.90697648  0.33795701     0.04600
H650        H  0.17100744  0.89531585  0.20286216     0.04600
C651        C  0.64752533  0.83979717  0.32077259    -0.10200
C652        C  0.63774840  0.80565670  0.33246325    -0.04100
C653        C  0.65445779  0.77318409  0.32871595    -0.10200
C654        C  0.68074403  0.77399349  0.31000597     0.10800
C655        C  0.69062047  0.80860964  0.29722297    -0.02000
C656        C  0.67416301  0.84175944  0.30313702     0.10600
C657        C  0.68498283  0.87599800  0.29184678    -0.12000
C658        C  0.71160408  0.87787907  0.27494622    -0.12000
C659        C  0.72810710  0.84549391  0.26832131     0.10600
C660        C  0.71748731  0.81038625  0.27941273    -0.02000
C661        C  0.69742074  0.74163061  0.30380934    -0.12100
C662        C  0.72323883  0.74309361  0.28511962    -0.12100
C663        C  0.73376003  0.77717214  0.27290950     0.10800
C664        C  0.76042808  0.77939910  0.25493335    -0.10200
C665        C  0.77042603  0.81428641  0.24457069    -0.04100
C666        C  0.75524360  0.84728050  0.25136684    -0.10200
H667        H  0.67298146  0.90169485  0.29619726     0.08000
H668        H  0.71916533  0.90506039  0.26722157     0.08000
H669        H  0.69033661  0.71490739  0.31308751     0.08200
H670        H  0.73527372  0.71742693  0.28077091     0.08200
H671        H  0.61769502  0.80488499  0.34692238     0.04600
H672        H  0.79007094  0.81565343  0.22960134     0.04600
C673        C  0.81350978  0.91479191  0.21725752     0.19300
C674        C  0.84375881  0.92244298  0.22355350    -0.18700
C675        C  0.86156496  0.94061412  0.20127332    -0.11000
C676        C  0.84943586  0.95141330  0.17212015     0.21600
C677        C  0.81884918  0.94575046  0.16647024    -0.20400
C678        C  0.80104459  0.92729055  0.18866373    -0.11200
C679        C  0.86840667  0.96734665  0.14683491    -0.15400
C680        C  0.89641298  0.95518447  0.14156238    -0.29200
C681        C  0.79735545  0.88895660  0.23866422    -0.03500
C682        C  0.76766084  0.88234742  0.23782146    -0.40000
H683        H  0.85394737  0.91307869  0.24533302     0.12800
H684        H  0.88492852  0.94556263  0.20662797     0.12400
H685        H  0.80905093  0.95394944  0.14416205     0.11800
H686        H  0.77807079  0.92122458  0.18250061     0.12100
H687        H  0.85828175  0.98706000  0.13059969     0.14800
H688        H  0.90570664  0.93329069  0.15626767     0.13600
H689        H  0.81109943  0.87160402  0.25388633     0.11300
H690        H  0.75279484  0.90045312  0.22470004     0.13300
C691        C  0.09508332  0.98386109  0.13660900     0.19300
C692        C  0.12182955  0.00165701  0.12771028    -0.18700
C693        C  0.14706815  0.00078714  0.14724453    -0.11000
C694        C  0.14620496  0.98256938  0.17646435     0.21600
C695        C  0.11882702  0.96713703  0.18659548    -0.20400
C696        C  0.09353459  0.96767872  0.16685567    -0.11200
C697        C  0.17509805  0.97255597  0.19182590    -0.15400
C698        C  0.17806916  0.96335883  0.22247925    -0.29200
C699        C  0.07125988  0.97904166  0.11208000    -0.03500
C700        C  0.04352534  0.96512622  0.11702141    -0.40000
H701        H  0.12379209  0.01448142  0.10468281     0.12800
H702        H  0.16788299  0.01250514  0.13866086     0.12400
H703        H  0.11752132  0.95194637  0.20859341     0.11800
H704        H  0.07360409  0.95330947  0.17467111     0.12100
H705        H  0.19342303  0.96580330  0.17596615     0.14800
H706        H  0.16046197  0.97028506  0.23908392     0.13600
H707        H  0.07754437  0.98594634  0.08801570     0.11300
H708        H  0.03565437  0.95962834  0.14073930     0.13300
C709        C  0.86785179  0.73374543  0.16630342     0.19300
C710        C  0.83797312  0.72160446  0.16370707    -0.18700
C711        C  0.81852125  0.72299666  0.18960849    -0.11000
C712        C  0.82859877  0.73650867  0.21895507     0.21600
C713        C  0.85899506  0.74608677  0.22206255    -0.20400
C714        C  0.87838540  0.74486366  0.19616957    -0.11200
C715        C  0.80789893  0.74779211  0.24490196    -0.15400
C716        C  0.77770633  0.74664923  0.24328106    -0.29200
C717        C  0.88599750  0.73730681  0.13681698    -0.03500
C718        C  0.91468845  0.74931389  0.13523367    -0.40000
H719        H  0.82918433  0.71261411  0.14110545     0.12800
H720        H  0.79538424  0.71536892  0.18590249     0.12400
H721        H  0.86746663  0.75676429  0.24427729     0.11800
H722        H  0.90110785  0.75429912  0.19963824     0.12100
H723        H  0.81759372  0.76600029  0.26278762     0.14800
H724        H  0.76631571  0.72790655  0.22714811     0.13600
H725        H  0.87442260  0.73128684  0.11481923     0.11300
H726        H  0.92757855  0.75452970  0.15643082     0.13300
C727        C  0.14941168  0.79149793  0.19929141     0.19300
C728        C  0.11919431  0.78664880  0.20717451    -0.18700
C729        C  0.09969255  0.76872546  0.18646717    -0.11000
C730        C  0.11007935  0.75520060  0.15738385     0.21600
C731        C  0.14071717  0.75690474  0.15064029    -0.20400
C732        C  0.16031867  0.77511175  0.17132919    -0.11200
C733        C  0.08900037  0.74102263  0.13329921    -0.15400
C734        C  0.06220804  0.75716366  0.12909860    -0.29200
C735        C  0.16708183  0.81791855  0.21878043    -0.03500
C736        C  0.19485649  0.82964705  0.21196445    -0.40000
H737        H  0.11024765  0.79849009  0.22871519     0.12800
H738        H  0.07630340  0.76646165  0.19281833     0.12400
H739        H  0.14920404  0.74598560  0.12855833     0.11800
H740        H  0.18349011  0.77755263  0.16446294     0.12100
H741        H  0.09623201  0.71872380  0.11770019     0.14800
H742        H  0.05597843  0.78109627  0.14340795     0.13600
H743        H  0.15526661  0.83222772  0.23768728     0.11300
H744        H  0.20849707  0.81645232  0.19407444     0.13300
C745        C  0.06430983  0.72263154  0.93394517     0.19300
C746        C  0.09495177  0.71642142  0.92902024    -0.18700
C747        C  0.10734593  0.71865417  0.89874989    -0.11000
C748        C  0.08934831  0.72765911  0.87256833     0.21600
C749        C  0.05898038  0.73564141  0.87777128    -0.20400
C750        C  0.04657918  0.73333500  0.90804951    -0.11200
C751        C  0.09968454  0.72186509  0.83946502    -0.15400
C752        C  0.12824168  0.71408019  0.83143719    -0.29200
C753        C  0.05184524  0.71723901  0.96627933    -0.03500
C754        C  0.02285273  0.70943738  0.97216743    -0.40000
H755        H  0.10918058  0.70829956  0.94851929     0.12800
H756        H  0.13061974  0.71128876  0.89590351     0.12400
H757        H  0.04448200  0.74230943  0.85809285     0.11800
H758        H  0.02307915  0.73954138  0.91089190     0.12100
H759        H  0.08225459  0.71513769  0.82244359     0.14800
H760        H  0.14649296  0.72327622  0.84646592     0.13600
H761        H  0.06753371  0.71769753  0.98587572     0.11300
H762        H  0.00700781  0.70724574  0.95285666     0.13300
C763        C  0.05697984  0.53396354  0.91217441     0.19300
C764        C  0.04511074  0.54078091  0.88213639    -0.18700
C765        C  0.06401534  0.54938426  0.85683277    -0.11000
C766        C  0.09522920  0.55204728  0.86138245     0.21600
C767        C  0.10694584  0.54449783  0.89139950    -0.20400
C768        C  0.08812397  0.53577170  0.91651194    -0.11200
C769        C  0.11621184  0.56686711  0.83720231    -0.15400
C770        C  0.10749785  0.58461331  0.81088928    -0.29200
C771        C  0.03674897  0.52526082  0.93888294    -0.03500
C772        C  0.04506309  0.50115807  0.96136804    -0.40000
H773        H  0.02118083  0.53935585  0.87824456     0.12800
H774        H  0.05385280  0.55444623  0.83413775     0.12400
H775        H  0.13076352  0.54674442  0.89580565     0.11800
H776        H  0.09799324  0.53155431  0.93955240     0.12100
H777        H  0.13951427  0.56988074  0.84426888     0.14800
H778        H  0.08426574  0.58455081  0.80368326     0.13600
H779        H  0.01441683  0.53715204  0.93922635     0.11300
H780        H  0.06628654  0.48668497  0.95915607     0.13300
C781        C  0.61156711  0.90349917  0.38045343     0.19300
C782        C  0.62020896  0.91892856  0.40945115    -0.18700
C783        C  0.59883212  0.93189938  0.43069139    -0.11000
C784        C  0.56815580  0.92979103  0.42331835     0.21600
C785        C  0.55947756  0.91491276  0.39409000    -0.20400
C786        C  0.58093346  0.90195944  0.37275727    -0.11200
C787        C  0.54482446  0.94072540  0.44640940    -0.15400
C788        C  0.55003974  0.96595252  0.46919459    -0.29200
C789        C  0.63452124  0.88374105  0.36168837    -0.03500
C790        C  0.63081355  0.87280096  0.33164045    -0.40000
H791        H  0.64357737  0.91957753  0.41625533     0.12800
H792        H  0.60649034  0.94189793  0.45339070     0.12400
H793        H  0.53599548  0.91254770  0.38804673     0.11800
H794        H  0.57326527  0.88903930  0.35113866     0.12100
H795        H  0.52277034  0.92810936  0.44434130     0.14800
H796        H  0.57131628  0.98056613  0.47010095     0.13600
H797        H  0.65401256  0.87359553  0.37443681     0.11300
H798        H  0.61201124  0.88224907  0.31762698     0.13300
C799        C  0.33225253  0.98497963  0.38285539     0.19300
C800        C  0.32544867  0.99229322  0.41452664    -0.18700
C801        C  0.34786208  0.99225753  0.43756327    -0.11000
C802        C  0.37773655  0.98376354  0.42963539     0.21600
C803        C  0.38489927  0.97908125  0.39762510    -0.20400
C804        C  0.36244548  0.97954850  0.37445120    -0.11200
C805        C  0.40137646  0.97787872  0.45422451    -0.15400
C806        C  0.39442316  0.96754924  0.48385544    -0.29200
C807        C  0.30721606  0.97547179  0.36102354    -0.03500
C808        C  0.31011658  0.97301871  0.32948361    -0.40000
H809        H  0.30244507  0.99648165  0.42171044     0.12800
H810        H  0.34137647  0.99801249  0.46163504     0.12400
H811        H  0.40768673  0.97300125  0.39069041     0.11800
H812        H  0.36862034  0.97300753  0.35041077     0.12100
H813        H  0.42475015  0.98004506  0.44745735     0.14800
H814        H  0.37112483  0.96374648  0.49019167     0.13600
H815        H  0.28800027  0.96183187  0.37177912     0.11300
H816        H  0.32880046  0.98668077  0.31791858     0.13300
C817        C  0.29828272  0.53338778  0.71794291     0.19300
C818        C  0.32928450  0.53698125  0.72242740    -0.18700
C819        C  0.34931995  0.52013229  0.70166276    -0.11000
C820        C  0.33872878  0.49894668  0.67608701     0.21600
C821        C  0.30789988  0.49229886  0.67328041    -0.20400
C822        C  0.28772922  0.50956552  0.69389759    -0.11200
C823        C  0.35934964  0.48508922  0.65137987    -0.15400
C824        C  0.38260479  0.50580889  0.64128639    -0.29200
C825        C  0.27858478  0.55860502  0.73638334    -0.03500
C826        C  0.25025712  0.56723309  0.72848365    -0.40000
H827        H  0.33993548  0.05030533  0.73971119     0.12800
H828        H  0.37364508  0.02053288  0.70236235     0.12400
H829        H  0.29933011  0.47534363  0.65410161     0.11800
H830        H  0.26407582  0.50511992  0.69014465     0.12100
H831        H  0.35397370  0.45895043  0.63962938     0.14800
H832        H  0.38968963  0.03209247  0.65025045     0.13600
H833        H  0.28937009  0.57566994  0.75438066     0.11300
H834        H  0.23793436  0.55138295  0.71096944     0.13300
C835        C  0.58456480  0.73916726  0.45492175     0.19300
C836        C  0.61542443  0.74068045  0.46108290    -0.18700
C837        C  0.63628076  0.73946505  0.43652891    -0.11000
C838        C  0.62702363  0.73633174  0.40498543     0.21600
C839        C  0.59614341  0.73265952  0.39875998    -0.20400
C840        C  0.57516553  0.73397094  0.42344423    -0.11200
C841        C  0.64959069  0.74417273  0.37981352    -0.15400
C842        C  0.64445739  0.74145005  0.34852745    -0.29200
C843        C  0.56352543  0.74450190  0.48205133    -0.03500
C844        C  0.53399683  0.75197352  0.47951222    -0.40000
H845        H  0.62349551  0.74437831  0.48499240     0.12800
H846        H  0.65979079  0.74273591  0.44215566     0.12400
H847        H  0.58785236  0.73078593  0.37485055     0.11800
H848        H  0.55171078  0.73177813  0.41753070     0.12100
H849        H  0.66896006  0.76045312  0.38721711     0.14800
H850        H  0.62542998  0.72558863  0.33994094     0.13600
H851        H  0.57338450  0.74440652  0.50549664     0.11300
H852        H  0.52337864  0.75300273  0.45654437     0.13300
C853        C  0.31829005  0.79172829  0.36814667     0.19300
C854        C  0.30200507  0.78020874  0.39477919    -0.18700
C855        C  0.31649529  0.76361055  0.42044553    -0.11000
C856        C  0.34757687  0.75866990  0.42006323     0.21600
C857        C  0.36355060  0.76750181  0.39252845    -0.20400
C858        C  0.34905407  0.78353854  0.36672763    -0.11200
C859        C  0.36321575  0.74534981  0.44876537    -0.15400
C860        C  0.38969140  0.76000318  0.45749059    -0.29200
C861        C  0.30300476  0.81511214  0.34403101    -0.03500
C862        C  0.31782839  0.83847854  0.32469445    -0.40000
H863        H  0.27822877  0.78564206  0.39637292     0.12800
H864        H  0.30365968  0.75635045  0.44121542     0.12400
H865        H  0.38738525  0.76246314  0.39109722     0.11800
H866        H  0.36227132  0.79010109  0.34613581     0.12100
H867        H  0.35214723  0.72498780  0.46372774     0.14800
H868        H  0.39946777  0.78230232  0.44351092     0.13600
H869        H  0.27881260  0.81766263  0.34556646     0.11300
H870        H  0.34205775  0.83925393  0.32482434     0.13300
C871        C  0.30904290  0.71872733  0.70054112     0.19300
C872        C  0.33996949  0.72293888  0.70513681    -0.18700
C873        C  0.35926683  0.72779956  0.67945238    -0.11000
C874        C  0.34804064  0.72772024  0.64836681     0.21600
C875        C  0.31688507  0.72640968  0.64402481    -0.20400
C876        C  0.29757328  0.72187109  0.66974084    -0.11200
C877        C  0.36774707  0.72638230  0.61989103    -0.15400
C878        C  0.39686325  0.71656564  0.62066248    -0.29200
C879        C  0.29066599  0.70320583  0.72668685    -0.03500
C880        C  0.26048393  0.70338014  0.72715355    -0.40000
H881        H  0.34941184  0.72059978  0.72859378     0.12800
H882        H  0.38293166  0.73030848  0.68420407     0.12400
H883        H  0.30749898  0.72667757  0.62045811     0.11800
H884        H  0.27396910  0.71800354  0.66507799     0.12100
H885        H  0.35726483  0.73084045  0.59706912     0.14800
H886        H  0.40789384  0.71128137  0.64296438     0.13600
H887        H  0.30227779  0.68509164  0.74318593     0.11300
H888        H  0.24815430  0.72286832  0.71255396     0.13300
C889        C  0.84680101  0.49572423  0.96965690     0.19300
C890        C  0.81671380  0.49675085  0.97911594    -0.18700
C891        C  0.79379177  0.50137290  0.95704441    -0.11000
C892        C  0.80019556  0.50435270  0.92478086     0.21600
C893        C  0.83017378  0.50116817  0.91491546    -0.20400
C894        C  0.85326267  0.49686841  0.93712227    -0.11200
C895        C  0.77622603  0.51823732  0.90346079    -0.15400
C896        C  0.77685673  0.51616400  0.87171374    -0.29200
C897        C  0.87022124  0.49535047  0.99483288    -0.03500
C898        C  0.89935192  0.50400064  0.99053821    -0.40000
H899        H  0.81478539  0.97359561  0.98861528     0.12800
H900        H  0.77100910  0.50428535  0.96537089     0.12400
H901        H  0.83607680  0.50424585  0.89031047     0.11800
H902        H  0.87602304  0.49543528  0.92865388     0.12100
H903        H  0.75983137  0.53669150  0.91420690     0.14800
H904        H  0.79240821  0.49765704  0.85987712     0.13600
H905        H  0.86334116  0.99138550  0.00774030     0.11300
H906        H  0.90795726  0.50967663  0.96713983     0.13300
C907        C  0.79664166  0.68610768  0.90411798     0.19300
C908        C  0.78552605  0.70191592  0.93206838    -0.18700
C909        C  0.80510100  0.71636061  0.95472422    -0.11000
C910        C  0.83603314  0.71439636  0.94995419     0.21600
C911        C  0.84713163  0.70083731  0.92123318    -0.20400
C912        C  0.82766877  0.68677890  0.89850797    -0.11200
C913        C  0.85662363  0.72555599  0.97536932    -0.15400
C914        C  0.88149394  0.70586030  0.98148530    -0.29200
C915        C  0.77612564  0.66360724  0.88436588    -0.03500
C916        C  0.78355411  0.64981096  0.85601660    -0.40000
H917        H  0.76175475  0.70151347  0.93701402     0.12800
H918        H  0.79619462  0.72720878  0.97664530     0.12400
H919        H  0.87096648  0.70010664  0.91671465     0.11800
H920        H  0.83739813  0.67448031  0.87764514     0.12100
H921        H  0.85077030  0.74952581  0.98980663     0.14800
H922        H  0.88612147  0.68042371  0.96839376     0.13600
H923        H  0.75571561  0.65351969  0.89547577     0.11300
H924        H  0.80321979  0.65915458  0.84335255     0.13300
C925        C  0.56563181  0.49815341  0.67445068     0.19300
C926        C  0.59659655  0.49143879  0.67385249    -0.18700
C927        C  0.61370021  0.49280867  0.70150777    -0.11000
C928        C  0.60016749  0.50079382  0.73069645     0.21600
C929        C  0.56891877  0.50497167  0.73162503    -0.20400
C930        C  0.55178366  0.50357988  0.70393721    -0.11200
C931        C  0.61791926  0.51288437  0.75873674    -0.15400
C932        C  0.64808949  0.51175733  0.76036664    -0.29200
C933        C  0.54947676  0.50117622  0.64363333    -0.03500
C934        C  0.52089686  0.51256378  0.63998519    -0.40000
H935        H  0.61379630  0.98837312  0.63808264     0.12800
H936        H  0.63768423  0.49003759  0.69940767     0.12400
H937        H  0.55785700  0.51137254  0.75370311     0.11800
H938        H  0.52798055  0.50803018  0.70590425     0.12100
H939        H  0.60653121  0.53198679  0.77465671     0.14800
H940        H  0.66062505  0.49166142  0.74657862     0.13600
H941        H  0.56599381  0.98923010  0.61004800     0.11300
H942        H  0.50698217  0.51850874  0.66026365     0.13300
C943        C  0.58185921  0.71786761  0.67821665     0.19300
C944        C  0.61318448  0.71761401  0.67704227    -0.18700
C945        C  0.62966399  0.69927881  0.70038114    -0.11000
C946        C  0.61488881  0.68137287  0.72554036     0.21600
C947        C  0.58371155  0.68465121  0.72797873    -0.20400
C948        C  0.56732642  0.70266788  0.70459123    -0.11200
C949        C  0.62998032  0.65523890  0.74743568    -0.15400
C950        C  0.65921768  0.64669336  0.74677341    -0.29200
C951        C  0.56466997  0.73206998  0.65095249    -0.03500
C952        C  0.53938145  0.71509031  0.64134572    -0.40000
H953        H  0.62481469  0.72974660  0.65712219     0.12800
H954        H  0.65364154  0.69790473  0.69761309     0.12400
H955        H  0.57176845  0.67161684  0.74728419     0.11800
H956        H  0.54320750  0.70370957  0.70670038     0.12100
H957        H  0.61566597  0.63923583  0.76318315     0.14800
H958        H  0.67504459  0.66245169  0.73275925     0.13600
H959        H  0.57411910  0.75473458  0.63716253     0.11300
H960        H  0.53116406  0.69076786  0.65394463     0.13300
loop_ 
_geom_bond_atom_site_label_1 
_geom_bond_atom_site_label_2 
_geom_bond_distance 
_geom_bond_site_symmetry_2 
_ccdc_geom_bond_type 
C1            C2   1.395       .  A
C1            C6   1.407       .  A
C1          C470   1.484       .  S
C2            C3   1.400       .  A
C2           H21   1.085       .  S
C3            C4   1.419       .  A
C3          C452   1.492       .  S
C4            C5   1.424       .  A
C4           C11   1.408       .  A
C5            C6   1.422       .  A
C5           C10   1.420       .  A
C6            C7   1.404       .  A
C7            C8   1.389       .  A
C7           H17   1.082       .  S
C8            C9   1.403       .  A
C8           H18   1.082       .  S
C9           C10   1.422       .  A
C9           C16   1.408       .  A
C10          C13   1.423       .  A
C11          C12   1.401       .  A
C11          H19   1.083   1_545  S
C12          C13   1.406       .  A
C12          H20   1.083   1_545  S
C13          C14   1.418       .  A
C14          C15   1.395       .  A
C14         C416   1.482       .  S
C15          C16   1.389       .  A
C15          H22   1.087       .  S
C16         C436   1.474       .  S
O23         Ni29   1.933       .  S
O23          C44   1.274       .  A
O24         Ni47   1.895       .  S
O24          C33   1.266       .  A
O25         Ni29   1.926       .  S
O25         Ni47   1.902       .  S
O25         Ni41   1.922       .  S
O25          H48   0.965       .  S
C26          O43   1.271       .  A
C26          O35   1.274       .  A
C26          C52   1.484       .  S
O27         Ni46   1.932       .  S
O27          C33   1.274       .  A
O28         Ni46   1.909       .  S
O28          C30   1.271       .  A
Ni29         O32   1.951       .  S
Ni29         O34   1.910       .  S
C30         C398   1.479       .  S
C30          O40   1.277       .  A
O31         Ni47   1.918       .  S
O31          C37   1.269       .  A
O32          C37   1.274       .  A
C33         C380   1.471       .  S
O34          C36   1.272       .  A
O35         Ni46   1.952       .  S
C36         C364   1.489       .  S
C36          O42   1.280       .  A
C37          C63   1.487       .  S
H38          O39   0.966       .  S
O39         Ni47   1.920       .  S
O39         Ni41   1.901       .  S
O39         Ni46   1.928       .  S
O40         Ni41   1.946       .  S
Ni41         O45   1.893       .  S
Ni41         O43   1.916       .  S
O42         Ni47   1.957       .  S
C44         C472   1.471       .  S
C44          O45   1.266       .  A
O49         Ni55   1.928       .  S
O49         C550   1.272       .  A
O50         Ni73   1.904       .  S
O50          C59   1.271       .  A
O51         Ni55   1.922       .  S
O51         Ni73   1.914       .  S
O51        Ni547   1.943       .  S
O51          H74   0.966       .  S
C52          O69   1.275       .  A
C52          O61   1.275       .  A
O53        Ni552   1.927       .  S
O53          C59   1.271       .  A
O54         Ni72   1.911       .  S
O54          C56   1.268       .  A
Ni55         O58   1.942       .  S
Ni55         O60   1.896       .  S
C56         C454   1.484       .  S
C56          O66   1.275       .  A
O57         Ni73   1.926       .  S
O57          C63   1.267       .  A
O58          C63   1.270       .  A
C59         C308   1.469       .  S
O60          C62   1.273       .  A
O61         Ni72   1.943       .  S
C62         C326   1.488       .  S
C62          O68   1.289       .  A
H64          O65   0.966       .  S
O65         Ni67   1.899       .  S
O65         Ni72   1.920       .  S
O65        Ni553   1.907   1_545  S
O66         Ni67   1.948       .  S
Ni67         O71   1.904       .  S
Ni67         O69   1.926       .  S
Ni67        O531   1.938   1_545  S
O68         Ni73   1.980       .  S
C70         C344   1.475   1_565  S
C70          O71   1.268   1_565  A
C70         O529   1.271       .  A
Ni72        O533   1.925       .  S
Ni73        O545   1.902       .  S
C75          C76   1.400       .  A
C75          C80   1.415       .  A
C75         C400   1.489       .  S
C76          C77   1.397       .  A
C76          H95   1.085       .  S
C77          C78   1.412       .  A
C77         C346   1.487       .  S
C78          C79   1.423       .  A
C78          C85   1.405       .  A
C79          C80   1.421       .  A
C79          C84   1.419       .  A
C80          C81   1.407       .  A
C81          C82   1.400       .  A
C81          H91   1.083       .  S
C82          C83   1.406       .  A
C82          H92   1.083       .  S
C83          C84   1.423       .  A
C83          C90   1.418       .  A
C84          C87   1.419       .  A
C85          C86   1.393       .  A
C85          H93   1.082       .  S
C86          C87   1.405       .  A
C86          H94   1.082       .  S
C87          C88   1.410       .  A
C88          C89   1.392       .  A
C88         C290   1.477       .  S
C89          C90   1.401       .  A
C89          H96   1.085       .  S
C90         C272   1.496       .  S
O97        Ni103   1.928       .  S
O97         C118   1.272       .  A
O98        Ni121   1.896   1_455  S
O98         C107   1.266       .  A
O99        Ni103   1.925       .  S
O99        Ni121   1.904       .  S
O99        Ni115   1.916       .  S
O99         H122   0.969       .  S
C100        O117   1.268       .  A
C100        O109   1.274   1_655  A
C100        C126   1.482       .  S
O101       Ni120   1.933       .  S
O101        C107   1.274       .  A
O102       Ni120   1.911       .  S
O102        C104   1.272       .  A
Ni103       O106   1.946       .  S
Ni103       O108   1.901       .  S
C104        C274   1.484   1_554  S
C104        O114   1.279   1_455  A
O105       Ni121   1.914       .  S
O105        C111   1.270       .  A
O106        C111   1.273       .  A
C107        C254   1.473       .  S
O108        C110   1.269       .  A
O109       Ni120   1.950       .  S
C110        C238   1.482       .  S
C110        O116   1.277       .  A
C111        C137   1.481       .  S
H112        O113   0.962       .  S
O113       Ni121   1.922       .  S
O113       Ni115   1.905       .  S
O113       Ni120   1.929   1_655  S
O114       Ni115   1.952       .  S
Ni115       O119   1.899       .  S
Ni115       O117   1.912       .  S
O116       Ni121   1.952       .  S
C118        C434   1.471   1_554  S
C118        O119   1.267       .  A
O123       Ni129   1.913       .  S
O123        C624   1.268   1_554  A
O124       Ni147   1.897       .  S
O124        C133   1.266       .  A
O125       Ni129   1.924   1_655  S
O125       Ni147   1.906       .  S
O125       Ni621   1.927       .  S
O125        H148   0.966       .  S
C126        O143   1.272       .  A
C126        O135   1.275       .  A
O127       Ni626   1.929       .  S
O127        C133   1.273       .  A
O128       Ni146   1.906       .  S
O128        C130   1.270       .  A
Ni129       O132   1.940       .  S
Ni129       O134   1.898       .  S
C130        C418   1.487   1_554  S
C130        O140   1.278       .  A
O131       Ni147   1.920       .  S
O131        C137   1.268       .  A
O132        C137   1.270   1_455  A
C133        C200   1.473       .  S
O134        C136   1.269       .  A
O135       Ni146   1.944       .  S
C136        C220   1.491       .  S
C136        O142   1.281   1_455  A
H138        O139   0.966       .  S
O139       Ni141   1.910       .  S
O139       Ni146   1.924       .  S
O139       Ni627   1.913   1_545  S
O140       Ni141   1.953       .  S
Ni141       O145   1.910   1_654  S
Ni141       O143   1.919       .  S
Ni141       O605   1.926   1_545  S
O142       Ni147   1.966       .  S
C144        C292   1.472       .  S
C144        O145   1.270   1_565  A
C144        O603   1.270       .  A
Ni146       O607   1.935   1_545  S
Ni147       O619   1.919       .  S
C149        C150   1.389       .  A
C149        C154   1.409       .  A
C149        C382   1.477       .  S
C150        C151   1.396       .  A
C150        H169   1.087       .  S
C151        C152   1.424       .  A
C151        C328   1.488       .  S
C152        C153   1.425       .  A
C152        C159   1.408       .  A
C153        C154   1.422       .  A
C153        C158   1.422       .  A
C154        C155   1.403       .  A
C155        C156   1.388       .  A
C155        H165   1.082       .  S
C156        C157   1.403       .  A
C156        H166   1.082       .  S
C157        C158   1.424       .  A
C157        C164   1.408       .  A
C158        C161   1.425       .  A
C159        C160   1.406       .  A
C159        H167   1.083       .  S
C160        C161   1.408       .  A
C160        H168   1.083       .  S
C161        C162   1.423       .  A
C162        C163   1.397       .  A
C162        C218   1.489       .  S
C163        C164   1.393       .  A
C163        H170   1.086       .  S
C164        C256   1.484       .  S
C171        C172   1.390       .  A
C171        C176   1.407       .  A
C171        C310   1.471       .  S
C172        C173   1.395       .  A
C172        H191   1.087       .  S
C173        C174   1.417       .  A
C173        C362   1.481       .  S
C174        C175   1.423       .  A
C174        C181   1.405       .  A
C175        C176   1.420       .  A
C175        C180   1.418       .  A
C176        C177   1.403       .  A
C177        C178   1.390       .  A
C177        H187   1.083       .  S
C178        C179   1.405       .  A
C178        H188   1.082       .  S
C179        C180   1.423       .  A
C179        C186   1.410       .  A
C180        C183   1.422       .  A
C181        C182   1.400       .  A
C181        H189   1.083       .  S
C182        C183   1.408       .  A
C182        H190   1.083       .  S
C183        C184   1.416       .  A
C184        C185   1.400       .  A
C184        C236   1.489       .  S
C185        C186   1.396       .  A
C185        H192   1.085       .  S
C186        C202   1.487       .  S
C193        C194   1.404       .  A
C193        C198   1.409       .  A
C193        C201   1.485       .  S
C194        C195   1.394       .  A
C194        H203   1.084       .  S
C195        C196   1.404       .  A
C195        H204   1.083       .  S
C196        C197   1.402       .  A
C196        C199   1.480       .  S
C197        C198   1.399       .  A
C197        H205   1.083       .  S
C198        H206   1.080       .  S
C199        H207   1.087       .  S
C199        C200   1.346       .  D
C200        H208   1.086       .  S
C201        H209   1.088       .  S
C201        C202   1.347       .  D
C202        H210   1.083       .  S
C211        C212   1.406       .  A
C211        C216   1.411       .  A
C211        C219   1.498       .  S
C212        C213   1.398       .  A
C212        H221   1.084       .  S
C213        C214   1.402       .  A
C213        H222   1.084       .  S
C214        C215   1.411       .  A
C214        C217   1.494       .  S
C215        C216   1.409       .  A
C215        H223   1.082       .  S
C216        H224   1.080       .  S
C217        H225   1.088       .  S
C217        C218   1.351       .  D
C218        H226   1.085       .  S
C219        H227   1.087       .  S
C219        C220   1.354       .  D
C220        H228   1.084       .  S
C229        C230   1.406       .  A
C229        C234   1.408       .  A
C229        C237   1.494       .  S
C230        C231   1.400       .  A
C230        H239   1.083       .  S
C231        C232   1.407       .  A
C231        H240   1.081       .  S
C232        C233   1.405       .  A
C232        C235   1.489       .  S
C233        C234   1.399       .  A
C233        H241   1.084       .  S
C234        H242   1.080       .  S
C235        H243   1.088       .  S
C235        C236   1.350       .  D
C236        H244   1.084       .  S
C237        H245   1.087       .  S
C237        C238   1.351       .  D
C238        H246   1.083       .  S
C247        C248   1.404       .  A
C247        C252   1.409       .  A
C247        C255   1.484       .  S
C248        C249   1.394       .  A
C248        H257   1.084       .  S
C249        C250   1.404       .  A
C249        H258   1.083       .  S
C250        C251   1.402       .  A
C250        C253   1.481       .  S
C251        C252   1.400       .  A
C251        H259   1.083       .  S
C252        H260   1.080       .  S
C253        H261   1.087       .  S
C253        C254   1.345       .  D
C254        H262   1.087       .  S
C255        H263   1.088       .  S
C255        C256   1.345       .  D
C256        H264   1.083       .  S
C265        C266   1.406       .  A
C265        C270   1.407       .  A
C265        C273   1.495       .  S
C266        C267   1.404       .  A
C266        H275   1.083       .  S
C267        C268   1.410       .  A
C267        H276   1.081       .  S
C268        C269   1.405       .  A
C268        C271   1.494       .  S
C269        C270   1.400       .  A
C269        H277   1.083       .  S
C270        H278   1.081       .  S
C271        H279   1.088       .  S
C271        C272   1.351       .  D
C272        H280   1.085       .  S
C273        H281   1.087       .  S
C273        C274   1.351       .  D
C274        H282   1.085       .  S
C283        C284   1.402       .  A
C283        C288   1.405       .  A
C283        C291   1.483       .  S
C284        C285   1.400       .  A
C284        H293   1.083       .  S
C285        C286   1.411       .  A
C285        H294   1.080       .  S
C286        C287   1.402       .  A
C286        C289   1.487       .  S
C287        C288   1.393       .  A
C287        H295   1.084       .  S
C288        H296   1.082       .  S
C289        H297   1.088       .  S
C289        C290   1.342       .  D
C290        H298   1.083       .  S
C291        H299   1.087       .  S
C291        C292   1.343   1_545  D
C292        H300   1.086       .  S
C301        C302   1.403       .  A
C301        C306   1.410       .  A
C301        C309   1.486       .  S
C302        C303   1.395       .  A
C302        H311   1.084       .  S
C303        C304   1.407       .  A
C303        H312   1.082       .  S
C304        C305   1.399       .  A
C304        C307   1.481       .  S
C305        C306   1.396       .  A
C305        H313   1.084       .  S
C306        H314   1.079       .  S
C307        H315   1.087       .  S
C307        C308   1.340       .  D
C308        H316   1.086       .  S
C309        H317   1.088       .  S
C309        C310   1.342       .  D
C310        H318   1.081       .  S
C319        C320   1.402       .  A
C319        C324   1.410       .  A
C319        C327   1.495       .  S
C320        C321   1.401       .  A
C320        H329   1.083       .  S
C321        C322   1.412       .  A
C321        H330   1.080       .  S
C322        C323   1.408       .  A
C322        C325   1.507       .  S
C323        C324   1.408       .  A
C323        H331   1.083       .  S
C324        H332   1.082       .  S
C325        H333   1.086       .  S
C325        C326   1.351       .  D
C326        H334   1.083       .  S
C327        H335   1.088       .  S
C327        C328   1.350       .  D
C328        H336   1.085       .  S
C337        C338   1.405       .  A
C337        C342   1.410       .  A
C337        C345   1.487       .  S
C338        C339   1.394       .  A
C338        H827   1.084       .  S
C339        C340   1.403       .  A
C339        H828   1.083       .  S
C340        C341   1.403   1_545  A
C340        C343   1.482   1_545  S
C341        C342   1.401   1_565  A
C341        H349   1.083       .  S
C342        H350   1.080       .  S
C343        H351   1.087       .  S
C343        C344   1.348   1_565  D
C344        H832   1.086       .  S
C345        H353   1.088       .  S
C345        C346   1.348       .  D
C346        H354   1.083       .  S
H347        C818   1.084       .  S
H348        C819   1.083       .  S
H352        C824   1.087       .  S
C355        C356   1.406       .  A
C355        C360   1.410       .  A
C355        C363   1.500       .  S
C356        C357   1.400       .  A
C356        H365   1.083       .  S
C357        C358   1.403       .  A
C357        H366   1.083       .  S
C358        C359   1.410       .  A
C358        C361   1.493       .  S
C359        C360   1.404       .  A
C359        H367   1.081       .  S
C360        H368   1.080       .  S
C361        H369   1.088       .  S
C361        C362   1.348       .  D
C362        H370   1.085       .  S
C363        H371   1.087       .  S
C363        C364   1.353       .  D
C364        H372   1.083       .  S
C373        C374   1.406       .  A
C373        C378   1.409       .  A
C373        C381   1.487       .  S
C374        C375   1.398       .  A
C374        H383   1.083       .  S
C375        C376   1.400       .  A
C375        H384   1.083       .  S
C376        C377   1.404       .  A
C376        C379   1.478       .  S
C377        C378   1.395       .  A
C377        H385   1.083       .  S
C378        H386   1.080       .  S
C379        H387   1.087       .  S
C379        C380   1.344       .  D
C380        H388   1.087       .  S
C381        H389   1.088       .  S
C381        C382   1.345       .  D
C382        H390   1.083       .  S
C391        C392   1.402       .  A
C391        C396   1.408       .  A
C391        C399   1.486       .  S
C392        C393   1.398       .  A
C392        H401   1.084       .  S
C393        C394   1.409       .  A
C393        H402   1.080       .  S
C394        C395   1.406       .  A
C394        C397   1.495       .  S
C395        C396   1.402       .  A
C395        H403   1.083       .  S
C396        H404   1.082       .  S
C397        H405   1.087       .  S
C397        C398   1.350       .  D
C398        H406   1.083       .  S
C399        H407   1.088       .  S
C399        C400   1.347       .  D
C400        H408   1.085       .  S
C409        C410   1.406       .  A
C409        C414   1.410       .  A
C409        C417   1.497       .  S
C410        C411   1.399       .  A
C410        H899   1.083       .  S
C411        C412   1.402       .  A
C411        H420   1.083       .  S
C412        C413   1.410       .  A
C412        C415   1.491   1_565  S
C413        C414   1.404       .  A
C413        H421   1.082   1_565  S
C414        H422   1.080   1_565  S
C415        H423   1.088       .  S
C415        C416   1.347       .  D
C416        H424   1.085   1_545  S
C417        H905   1.087   1_556  S
C417        C418   1.351   1_565  D
C418        H426   1.083       .  S
H419        C890   1.083   1_554  S
H425        C897   1.087   1_554  S
C427        C428   1.405       .  A
C427        C432   1.409       .  A
C427        C435   1.487       .  S
C428        C429   1.399       .  A
C428        H437   1.083       .  S
C429        C430   1.401       .  A
C429        H438   1.083       .  S
C430        C431   1.402       .  A
C430        C433   1.476       .  S
C431        C432   1.394       .  A
C431        H439   1.083       .  S
C432        H440   1.080       .  S
C433        H441   1.087       .  S
C433        C434   1.345       .  D
C434        H442   1.087       .  S
C435        H443   1.088       .  S
C435        C436   1.344       .  D
C436        H444   1.083       .  S
C445        C446   1.407       .  A
C445        C450   1.408       .  A
C445        C453   1.497       .  S
C446        C447   1.403       .  A
C446        H935   1.083       .  S
C447        C448   1.408       .  A
C447        H456   1.081       .  S
C448        C449   1.405       .  A
C448        C451   1.491   1_565  S
C449        C450   1.400       .  A
C449        H457   1.084   1_565  S
C450        H458   1.080       .  S
C451        H459   1.088       .  S
C451        C452   1.351       .  D
C452        H460   1.085   1_545  S
C453        H941   1.087       .  S
C453        C454   1.352   1_565  D
C454        H462   1.083       .  S
H455        C926   1.083       .  S
H461        C933   1.087       .  S
C463        C464   1.402       .  A
C463        C468   1.405       .  A
C463        C471   1.481       .  S
C464        C465   1.400       .  A
C464        H473   1.083       .  S
C465        C466   1.409       .  A
C465        H474   1.080       .  S
C466        C467   1.403       .  A
C466        C469   1.484       .  S
C467        C468   1.392       .  A
C467        H475   1.084       .  S
C468        H476   1.082       .  S
C469        H477   1.088       .  S
C469        C470   1.345       .  D
C470        H478   1.083       .  S
C471        H479   1.087       .  S
C471        C472   1.346       .  D
C472        H480   1.086       .  S
C481        C482   1.393       .  A
C481        C486   1.405       .  A
C481        C950   1.482       .  S
C482        C483   1.401       .  A
C482        H501   1.085       .  S
C483        C484   1.419       .  A
C483        C932   1.488       .  S
C484        C485   1.422       .  A
C484        C491   1.408       .  A
C485        C486   1.423       .  A
C485        C490   1.418       .  A
C486        C487   1.404       .  A
C487        C488   1.386       .  A
C487        H497   1.082       .  S
C488        C489   1.402       .  A
C488        H498   1.083       .  S
C489        C490   1.420       .  A
C489        C496   1.402       .  A
C490        C493   1.424       .  A
C491        C492   1.402       .  A
C491        H499   1.083       .  S
C492        C493   1.406       .  A
C492        H500   1.083       .  S
C493        C494   1.420       .  A
C494        C495   1.396       .  A
C494        C896   1.485       .  S
C495        C496   1.389       .  A
C495        H502   1.086       .  S
C496        C916   1.469       .  S
O503       Ni509   1.932       .  S
O503        C524   1.274       .  A
O504       Ni527   1.892       .  S
O504        C513   1.265       .  A
O505       Ni509   1.929       .  S
O505       Ni527   1.902       .  S
O505       Ni521   1.920       .  S
O505        H528   0.965       .  S
C506        O523   1.270       .  A
C506        O515   1.277       .  A
C506        C532   1.484       .  S
O507       Ni526   1.943       .  S
O507        C513   1.276       .  A
O508       Ni526   1.913       .  S
O508        C510   1.271       .  A
Ni509       O512   1.949       .  S
Ni509       O514   1.910       .  S
C510        C878   1.483       .  S
C510        O520   1.276       .  A
O511       Ni527   1.914       .  S
O511        C517   1.269       .  A
O512        C517   1.273       .  A
C513        C860   1.475       .  S
O514        C516   1.272       .  A
O515       Ni526   1.956       .  S
C516        C844   1.490       .  S
C516        O522   1.279       .  A
C517        C543   1.483       .  S
H518        O519   0.966       .  S
O519       Ni527   1.916       .  S
O519       Ni521   1.905       .  S
O519       Ni526   1.930       .  S
O520       Ni521   1.944       .  S
Ni521       O525   1.895       .  S
Ni521       O523   1.910       .  S
O522       Ni527   1.957       .  S
C524        C952   1.471       .  S
C524        O525   1.266       .  A
O529       Ni535   1.924       .  S
O530       Ni553   1.905       .  S
O530        C539   1.270       .  A
O531       Ni535   1.925       .  S
O531       Ni553   1.914       .  S
O531        H554   0.966       .  S
C532        O549   1.276       .  A
C532        O541   1.277       .  A
O533        C539   1.271   1_545  A
O534       Ni552   1.908       .  S
O534        C536   1.267       .  A
Ni535       O538   1.938       .  S
Ni535       O540   1.889       .  S
C536        C934   1.485       .  S
C536        O546   1.273       .  A
O537       Ni553   1.924       .  S
O537        C543   1.267       .  A
O538        C543   1.269       .  A
C539        C788   1.470       .  S
O540        C542   1.270       .  A
O541       Ni552   1.943       .  S
C542        C806   1.481       .  S
C542        O548   1.287       .  A
H544        O545   0.967       .  S
O545       Ni547   1.896       .  S
O545       Ni552   1.916       .  S
O546       Ni547   1.947       .  S
Ni547       O551   1.902       .  S
Ni547       O549   1.926       .  S
O548       Ni553   1.974       .  S
C550        C824   1.475       .  S
C550        O551   1.267       .  A
C555        C556   1.400       .  A
C555        C560   1.417       .  A
C555        C880   1.491       .  S
C556        C557   1.396       .  A
C556        H575   1.085       .  S
C557        C558   1.410       .  A
C557        C826   1.485       .  S
C558        C559   1.422       .  A
C558        C565   1.405       .  A
C559        C560   1.423       .  A
C559        C564   1.420       .  A
C560        C561   1.407       .  A
C561        C562   1.400       .  A
C561        H571   1.083       .  S
C562        C563   1.406       .  A
C562        H572   1.083       .  S
C563        C564   1.423       .  A
C563        C570   1.419       .  A
C564        C567   1.420       .  A
C565        C566   1.392       .  A
C565        H573   1.082       .  S
C566        C567   1.404       .  A
C566        H574   1.083       .  S
C567        C568   1.408       .  A
C568        C569   1.390       .  A
C568        C770   1.476       .  S
C569        C570   1.401       .  A
C569        H576   1.085       .  S
C570        C752   1.494       .  S
O577       Ni583   1.915       .  S
O577        C598   1.271       .  A
O578       Ni601   1.888   1_455  S
O578        C587   1.265       .  A
O579       Ni583   1.924       .  S
O579       Ni601   1.902       .  S
O579       Ni595   1.930       .  S
O579        H602   0.969       .  S
C580        O597   1.272       .  A
C580        O589   1.275   1_655  A
C580        C606   1.483       .  S
O581       Ni600   1.936       .  S
O581        C587   1.275       .  A
O582       Ni600   1.912       .  S
O582        C584   1.271       .  A
Ni583       O586   1.942       .  S
Ni583       O588   1.899       .  S
C584        C754   1.483   1_554  S
C584        O594   1.276   1_455  A
O585       Ni601   1.917       .  S
O585        C591   1.267       .  A
O586        C591   1.271       .  A
C587        C734   1.468       .  S
O588        C590   1.270       .  A
O589       Ni600   1.949       .  S
C590        C718   1.485       .  S
C590        O596   1.282       .  A
C591        C617   1.482       .  S
H592        O593   0.963       .  S
O593       Ni601   1.913       .  S
O593       Ni595   1.900       .  S
O593       Ni600   1.925   1_655  S
O594       Ni595   1.945       .  S
Ni595       O599   1.897       .  S
Ni595       O597   1.916       .  S
O596       Ni601   1.962       .  S
C598        C914   1.466   1_554  S
C598        O599   1.266       .  A
O603       Ni609   1.921   1_556  S
O604       Ni627   1.897       .  S
O604        C613   1.265       .  A
O605       Ni609   1.925   1_655  S
O605       Ni627   1.908       .  S
O605        H628   0.966       .  S
C606        O623   1.273       .  A
C606        O615   1.273       .  A
O607        C613   1.274       .  A
O608       Ni626   1.906       .  S
O608        C610   1.271       .  A
Ni609       O612   1.946       .  S
Ni609       O614   1.905       .  S
C610        C898   1.486   1_554  S
C610        O620   1.278       .  A
O611       Ni627   1.913       .  S
O611        C617   1.267       .  A
O612        C617   1.272   1_455  A
C613        C680   1.475       .  S
O614        C616   1.270       .  A
O615       Ni626   1.941       .  S
C616        C700   1.488       .  S
C616        O622   1.280   1_455  A
H618        O619   0.966       .  S
O619       Ni621   1.910       .  S
O619       Ni626   1.924       .  S
O620       Ni621   1.954       .  S
Ni621       O625   1.914   1_654  S
Ni621       O623   1.923       .  S
O622       Ni627   1.961       .  S
C624        C772   1.469       .  S
C624        O625   1.271       .  A
C629        C630   1.390       .  A
C629        C634   1.410       .  A
C629        C862   1.481       .  S
C630        C631   1.397       .  A
C630        H649   1.086       .  S
C631        C632   1.418       .  A
C631        C808   1.481       .  S
C632        C633   1.422       .  A
C632        C639   1.408       .  A
C633        C634   1.424       .  A
C633        C638   1.420       .  A
C634        C635   1.403       .  A
C635        C636   1.389       .  A
C635        H645   1.082       .  S
C636        C637   1.404       .  A
C636        H646   1.083       .  S
C637        C638   1.420       .  A
C637        C644   1.405       .  A
C638        C641   1.425       .  A
C639        C640   1.403       .  A
C639        H647   1.083       .  S
C640        C641   1.406       .  A
C640        H648   1.083       .  S
C641        C642   1.421       .  A
C642        C643   1.397       .  A
C642        C698   1.488       .  S
C643        C644   1.394       .  A
C643        H650   1.086       .  S
C644        C736   1.476       .  S
C651        C652   1.391       .  A
C651        C656   1.408       .  A
C651        C790   1.474       .  S
C652        C653   1.394       .  A
C652        H671   1.087       .  S
C653        C654   1.419       .  A
C653        C842   1.484       .  S
C654        C655   1.424       .  A
C654        C661   1.405       .  A
C655        C656   1.421       .  A
C655        C660   1.421       .  A
C656        C657   1.403       .  A
C657        C658   1.391       .  A
C657        H667   1.083       .  S
C658        C659   1.405       .  A
C658        H668   1.082       .  S
C659        C660   1.425       .  A
C659        C666   1.412       .  A
C660        C663   1.424       .  A
C661        C662   1.402       .  A
C661        H669   1.083       .  S
C662        C663   1.408       .  A
C662        H670   1.083       .  S
C663        C664   1.418       .  A
C664        C665   1.399       .  A
C664        C716   1.491       .  S
C665        C666   1.395       .  A
C665        H672   1.085       .  S
C666        C682   1.489       .  S
C673        C674   1.404       .  A
C673        C678   1.408       .  A
C673        C681   1.484       .  S
C674        C675   1.397       .  A
C674        H683   1.083       .  S
C675        C676   1.405       .  A
C675        H684   1.083       .  S
C676        C677   1.402       .  A
C676        C679   1.482       .  S
C677        C678   1.399       .  A
C677        H685   1.083       .  S
C678        H686   1.081       .  S
C679        H687   1.087       .  S
C679        C680   1.346       .  D
C680        H688   1.087       .  S
C681        H689   1.088       .  S
C681        C682   1.348       .  D
C682        H690   1.084       .  S
C691        C692   1.406   1_565  A
C691        C696   1.410       .  A
C691        C699   1.497       .  S
C692        C693   1.399       .  A
C692        H701   1.083       .  S
C693        C694   1.402   1_545  A
C693        H702   1.083       .  S
C694        C695   1.409       .  A
C694        C697   1.491       .  S
C695        C696   1.406       .  A
C695        H703   1.082       .  S
C696        H704   1.081       .  S
C697        H705   1.088       .  S
C697        C698   1.348       .  D
C698        H706   1.085       .  S
C699        H707   1.087       .  S
C699        C700   1.352       .  D
C700        H708   1.084       .  S
C709        C710   1.408       .  A
C709        C714   1.407       .  A
C709        C717   1.496       .  S
C710        C711   1.402       .  A
C710        H719   1.083       .  S
C711        C712   1.407       .  A
C711        H720   1.080       .  S
C712        C713   1.407       .  A
C712        C715   1.494       .  S
C713        C714   1.400       .  A
C713        H721   1.084       .  S
C714        H722   1.080       .  S
C715        H723   1.088       .  S
C715        C716   1.352       .  D
C716        H724   1.084       .  S
C717        H725   1.087       .  S
C717        C718   1.354       .  D
C718        H726   1.083       .  S
C727        C728   1.402       .  A
C727        C732   1.410       .  A
C727        C735   1.482       .  S
C728        C729   1.392       .  A
C728        H737   1.084       .  S
C729        C730   1.404       .  A
C729        H738   1.083       .  S
C730        C731   1.401       .  A
C730        C733   1.477       .  S
C731        C732   1.399       .  A
C731        H739   1.083       .  S
C732        H740   1.080       .  S
C733        H741   1.087       .  S
C733        C734   1.343       .  D
C734        H742   1.087       .  S
C735        H743   1.089       .  S
C735        C736   1.342       .  D
C736        H744   1.083       .  S
C745        C746   1.404       .  A
C745        C750   1.408       .  A
C745        C753   1.493       .  S
C746        C747   1.401       .  A
C746        H755   1.083       .  S
C747        C748   1.409       .  A
C747        H756   1.081       .  S
C748        C749   1.406       .  A
C748        C751   1.492       .  S
C749        C750   1.401       .  A
C749        H757   1.083       .  S
C750        H758   1.081       .  S
C751        H759   1.088       .  S
C751        C752   1.351       .  D
C752        H760   1.085       .  S
C753        H761   1.087       .  S
C753        C754   1.349       .  D
C754        H762   1.085       .  S
C763        C764   1.401       .  A
C763        C768   1.405       .  A
C763        C771   1.483       .  S
C764        C765   1.401       .  A
C764        H773   1.083       .  S
C765        C766   1.411       .  A
C765        H774   1.080       .  S
C766        C767   1.403       .  A
C766        C769   1.488       .  S
C767        C768   1.393       .  A
C767        H775   1.084       .  S
C768        H776   1.082       .  S
C769        H777   1.089       .  S
C769        C770   1.343       .  D
C770        H778   1.082       .  S
C771        H779   1.087       .  S
C771        C772   1.341       .  D
C772        H780   1.087       .  S
C781        C782   1.401       .  A
C781        C786   1.408       .  A
C781        C789   1.480       .  S
C782        C783   1.394       .  A
C782        H791   1.084       .  S
C783        C784   1.408       .  A
C783        H792   1.081       .  S
C784        C785   1.402       .  A
C784        C787   1.484       .  S
C785        C786   1.399       .  A
C785        H793   1.083       .  S
C786        H794   1.081       .  S
C787        H795   1.087       .  S
C787        C788   1.342       .  D
C788        H796   1.085       .  S
C789        H797   1.089       .  S
C789        C790   1.342       .  D
C790        H798   1.084       .  S
C799        C800   1.401       .  A
C799        C804   1.410       .  A
C799        C807   1.490       .  S
C800        C801   1.399       .  A
C800        H809   1.084       .  S
C801        C802   1.411       .  A
C801        H810   1.081       .  S
C802        C803   1.405       .  A
C802        C805   1.499       .  S
C803        C804   1.404       .  A
C803        H811   1.083       .  S
C804        H812   1.082       .  S
C805        H813   1.086       .  S
C805        C806   1.347       .  D
C806        H814   1.084       .  S
C807        H815   1.088       .  S
C807        C808   1.346       .  D
C808        H816   1.085       .  S
C817        C818   1.404       .  A
C817        C822   1.409       .  A
C817        C825   1.486       .  S
C818        C819   1.394       .  A
C819        C820   1.404       .  A
C820        C821   1.403       .  A
C820        C823   1.482       .  S
C821        C822   1.401       .  A
C821        H829   1.083       .  S
C822        H830   1.080       .  S
C823        H831   1.087       .  S
C823        C824   1.347       .  D
C825        H833   1.088       .  S
C825        C826   1.347       .  D
C826        H834   1.083       .  S
C835        C836   1.405       .  A
C835        C840   1.411       .  A
C835        C843   1.499       .  S
C836        C837   1.399       .  A
C836        H845   1.083       .  S
C837        C838   1.404       .  A
C837        H846   1.084       .  S
C838        C839   1.411       .  A
C838        C841   1.496       .  S
C839        C840   1.407       .  A
C839        H847   1.081       .  S
C840        H848   1.080       .  S
C841        H849   1.089       .  S
C841        C842   1.349       .  D
C842        H850   1.084       .  S
C843        H851   1.087       .  S
C843        C844   1.352       .  D
C844        H852   1.084       .  S
C853        C854   1.406       .  A
C853        C858   1.408       .  A
C853        C861   1.490       .  S
C854        C855   1.400       .  A
C854        H863   1.083       .  S
C855        C856   1.401       .  A
C855        H864   1.083       .  S
C856        C857   1.405       .  A
C856        C859   1.483       .  S
C857        C858   1.396       .  A
C857        H865   1.083       .  S
C858        H866   1.081       .  S
C859        H867   1.086       .  S
C859        C860   1.345       .  D
C860        H868   1.087       .  S
C861        H869   1.088       .  S
C861        C862   1.347       .  D
C862        H870   1.083       .  S
C871        C872   1.404       .  A
C871        C876   1.407       .  A
C871        C879   1.488       .  S
C872        C873   1.401       .  A
C872        H881   1.083       .  S
C873        C874   1.410       .  A
C873        H882   1.080       .  S
C874        C875   1.405       .  A
C874        C877   1.496       .  S
C875        C876   1.401       .  A
C875        H883   1.083       .  S
C876        H884   1.082       .  S
C877        H885   1.087       .  S
C877        C878   1.350       .  D
C878        H886   1.083       .  S
C879        H887   1.088       .  S
C879        C880   1.349       .  D
C880        H888   1.085       .  S
C889        C890   1.404       .  A
C889        C894   1.410       .  A
C889        C897   1.495       .  S
C890        C891   1.397       .  A
C891        C892   1.402       .  A
C891        H900   1.084       .  S
C892        C893   1.409       .  A
C892        C895   1.489       .  S
C893        C894   1.405       .  A
C893        H901   1.082       .  S
C894        H902   1.081       .  S
C895        H903   1.088       .  S
C895        C896   1.348       .  D
C896        H904   1.085       .  S
C897        C898   1.350       .  D
C898        H906   1.084       .  S
C907        C908   1.404       .  A
C907        C912   1.408       .  A
C907        C915   1.478       .  S
C908        C909   1.397       .  A
C908        H917   1.083       .  S
C909        C910   1.400       .  A
C909        H918   1.083       .  S
C910        C911   1.402       .  A
C910        C913   1.471       .  S
C911        C912   1.390       .  A
C911        H919   1.083       .  S
C912        H920   1.080       .  S
C913        H921   1.087       .  S
C913        C914   1.344       .  D
C914        H922   1.087       .  S
C915        H923   1.088       .  S
C915        C916   1.341       .  D
C916        H924   1.083       .  S
C925        C926   1.406       .  A
C925        C930   1.409       .  A
C925        C933   1.496       .  S
C926        C927   1.400       .  A
C927        C928   1.407       .  A
C927        H936   1.081       .  S
C928        C929   1.406       .  A
C928        C931   1.492       .  S
C929        C930   1.402       .  A
C929        H937   1.084       .  S
C930        H938   1.080       .  S
C931        H939   1.088       .  S
C931        C932   1.351       .  D
C932        H940   1.084       .  S
C933        C934   1.351       .  D
C934        H942   1.083       .  S
C943        C944   1.401       .  A
C943        C948   1.404       .  A
C943        C951   1.479       .  S
C944        C945   1.399       .  A
C944        H953   1.083       .  S
C945        C946   1.410       .  A
C945        H954   1.080       .  S
C946        C947   1.403       .  A
C946        C949   1.483       .  S
C947        C948   1.393       .  A
C947        H955   1.084       .  S
C948        H956   1.083       .  S
C949        H957   1.088       .  S
C949        C950   1.344       .  D
C950        H958   1.083       .  S
C951        H959   1.087       .  S
C951        C952   1.345       .  D
C952        H960   1.087       .  S
