geometry optimzed in LAMMPS
_audit_creation_date              2020-11-30 
_audit_creation_method            'lammps2cif' 
_symmetry_space_group_name_H-M    'P1' 
_symmetry_Int_Tables_number       1 
_symmetry_cell_setting            triclinic 
loop_ 
_symmetry_equiv_pos_as_xyz 
  x,y,z 
_cell_length_a                    72.78565516 
_cell_length_b                    73.25255298650694 
_cell_length_c                    26.00684891791244 
_cell_angle_alpha                 89.73908179949589 
_cell_angle_beta                  89.99450693597663 
_cell_angle_gamma                 121.79043413012539 
loop_ 
_atom_site_label 
_atom_site_type_symbol 
_atom_site_fract_x 
_atom_site_fract_y 
_atom_site_fract_z 
_atom_site_charge 
O1          O  0.67076820  0.49317089  0.64116424    -0.57800
C2          C  0.65245054  0.49084971  0.79751072     0.74800
O3          O  0.64236375  0.43225208  0.74285447    -0.59000
C4          C  0.67284820  0.48074420  0.61115939     0.74800
C5          C  0.70579001  0.47482094  0.74615369     0.77200
Cd6        Cd  0.66517823  0.47079530  0.72017605     1.37500
O7          O  0.65168576  0.49421971  0.74994963    -0.57800
O8          O  0.70490998  0.49098736  0.73239170    -0.56600
C9          C  0.62648409  0.42884020  0.71553221     0.77100
O10         O  0.68783082  0.45728652  0.75055312    -0.59000
O11         O  0.66045295  0.47967081  0.80859605    -0.57500
O12         O  0.67184109  0.46461635  0.63200290    -0.57500
O13         O  0.62857182  0.44491189  0.69182311    -0.56600
O14         O  0.51678030  0.28506918  0.73845902    -0.57800
C15         C  0.54735497  0.34557400  0.70506122     0.74800
O16         O  0.48238688  0.30507877  0.62796063    -0.59000
C17         C  0.49913345  0.26745778  0.73159016     0.74800
C18         C  0.48526719  0.32300131  0.78106687     0.77200
Cd19       Cd  0.50432045  0.30822385  0.70615061     1.37500
O20         O  0.54219585  0.33028792  0.73614845    -0.57800
O21         O  0.48521226  0.32652176  0.73341285    -0.56600
C22         C  0.49337011  0.30084833  0.59783364     0.77100
O23         O  0.49217104  0.31095960  0.79334292    -0.59000
O24         O  0.53290315  0.34286267  0.67367934    -0.57500
O25         O  0.48327327  0.26870286  0.71624833    -0.57500
O26         O  0.50837232  0.29951278  0.61832928    -0.56600
O27         O  0.64393817  0.48690260  0.25207019    -0.57800
C28         C  0.67525288  0.48275657  0.38891559     0.74800
O29         O  0.64657621  0.43678718  0.24914472    -0.59000
C30         C  0.65175186  0.49267100  0.20733627     0.74800
C31         C  0.70776729  0.47779899  0.25290348     0.77200
Cd32       Cd  0.66767723  0.47397228  0.28031104     1.37500
O33         O  0.67512380  0.49657484  0.35942124    -0.57800
O34         O  0.70712212  0.49351411  0.27092516    -0.56600
C35         C  0.63096212  0.43128742  0.27977764     0.77100
O36         O  0.68967323  0.46081068  0.24453612    -0.59000
O37         O  0.67228941  0.46595773  0.36765242    -0.57500
O38         O  0.66848677  0.49206531  0.19831228    -0.57500
O39         O  0.63293647  0.44544909  0.31072212    -0.56600
O40         O  0.48291800  0.30622074  0.34480112    -0.57800
C41         C  0.48964206  0.32738551  0.18985457     0.74800
O42         O  0.54590241  0.33511732  0.24845698    -0.59000
C43         C  0.49521571  0.30454451  0.37653566     0.74800
C44         C  0.50330361  0.27260263  0.24296337     0.77200
Cd45       Cd  0.50717361  0.31283877  0.26934719     1.37500
O46         O  0.48658784  0.32912345  0.23706346    -0.57800
O47         O  0.48680358  0.27330006  0.25518412    -0.56600
C48         C  0.54946602  0.35073555  0.27640284     0.77100
O49         O  0.52101972  0.29050811  0.24108993    -0.59000
O50         O  0.49888467  0.31725070  0.18016810    -0.57500
O51         O  0.51215714  0.30630821  0.35814288    -0.57500
O52         O  0.53344773  0.34874935  0.30052694    -0.56600
C53         C  0.59007075  0.52554292  0.00123987     0.86500
C54         C  0.60233157  0.52450316  0.04823566    -0.53800
C55         C  0.60596996  0.50805027  0.04698963     0.09400
C56         C  0.59777023  0.49438073  0.99780722     0.20300
C57         C  0.60463020  0.52718277  0.95550132    -0.54500
C58         C  0.60838140  0.51070499  0.95333921     0.09500
C59         C  0.56984342  0.50294218  0.99579091    -0.54000
C60         C  0.57369229  0.48669121  0.99390077     0.10100
H61         H  0.60749691  0.53570211  0.08005277     0.14600
H62         H  0.60086267  0.48106769  0.99671877     0.00300
H63         H  0.61222511  0.54031468  0.92837040     0.14900
H64         H  0.55362273  0.50005697  0.99285131     0.14700
C65         C  0.45539487  0.38891382  0.98239428     0.86500
C66         C  0.45384455  0.37450685  0.93745349    -0.53800
C67         C  0.47034331  0.37073434  0.93571224     0.09400
C68         C  0.48656157  0.38102835  0.98055165     0.20300
C69         C  0.45596344  0.37648409  0.02999460    -0.54500
C70         C  0.47244515  0.37252677  0.02970314     0.09500
C71         C  0.47814552  0.40890940  0.97894759    -0.54000
C72         C  0.49447043  0.40507549  0.97837348     0.10100
H73         H  0.44050926  0.36714953  0.91052026     0.14600
H74         H  0.50001553  0.37808875  0.97874376     0.00300
H75         H  0.44373764  0.37044154  0.05990778     0.14900
H76         H  0.48114137  0.42510523  0.97810769     0.14700
O77         O  0.64857660  0.11914362  0.75667975    -0.57800
C78         C  0.67550731  0.15036903  0.62507971     0.74800
O79         O  0.64610008  0.17273175  0.76056094    -0.59000
C80         C  0.65259408  0.12266345  0.80407731     0.74800
C81         C  0.71019923  0.19226223  0.75645428     0.77200
Cd82       Cd  0.66770882  0.15727075  0.72981187     1.37500
O83         O  0.66709396  0.13498446  0.65719798    -0.57800
O84         O  0.70726346  0.17465406  0.74017325    -0.56600
C85         C  0.63293554  0.16583682  0.72351914     0.77100
O86         O  0.69339924  0.19312928  0.76200008    -0.59000
O87         O  0.68068058  0.16862002  0.64208228    -0.57500
O88         O  0.66452320  0.14216600  0.81648319    -0.57500
O89         O  0.63628209  0.15560504  0.68967959    -0.56600
O90         O  0.65742416  0.12980320  0.37976789    -0.57800
C91         C  0.64572280  0.12135091  0.21912964     0.74800
O92         O  0.64458932  0.17314137  0.29839311    -0.59000
C93         C  0.67179639  0.14530156  0.40599339     0.74800
C94         C  0.70238803  0.18859395  0.26703249     0.77200
Cd95       Cd  0.66228878  0.15217181  0.30190428     1.37500
O96         O  0.65703451  0.12009986  0.25440976    -0.57800
O97         O  0.70023008  0.17033724  0.27219221    -0.56600
C98         C  0.62694240  0.15864808  0.31828306     0.77100
O99         O  0.68568800  0.18936978  0.27515019    -0.59000
O100        O  0.64317584  0.13707776  0.22174274    -0.57500
O101        O  0.68213678  0.16317921  0.38296606    -0.57500
O102        O  0.62637651  0.14192331  0.33339901    -0.56600
C103        C  0.58689280  0.02507290  0.00938809     0.86500
C104        C  0.60286831  0.03796066  0.96526041    -0.53800
C105        C  0.60839530  0.05893445  0.96275998     0.09400
C106        C  0.59734096  0.06504554  0.00355655     0.20300
C107        C  0.59803594  0.03837829  0.05795566    -0.54500
C108        C  0.60326430  0.05926460  0.05527707     0.09500
C109        C  0.56778020  0.02800707  0.99968982    -0.54000
C110        C  0.57320210  0.04878349  0.99719079     0.10100
H111        H  0.60921498  0.03156231  0.93789752     0.14600
H112        H  0.60150777  0.08189338  0.99999847     0.00300
H113        H  0.60100382  0.03162782  0.09189516     0.14900
H114        H  0.55107562  0.01471141  0.99791159     0.14700
O115        O  0.49415767  0.11941479  0.74927726    -0.57800
C116        C  0.49515685  0.15003579  0.61007741     0.74800
O117        O  0.52119355  0.19279234  0.74529942    -0.59000
C118        C  0.49167107  0.12339196  0.79515977     0.74800
C119        C  0.55344942  0.16547400  0.71257680     0.77200
Cd120      Cd  0.50968876  0.15634878  0.71572413     1.37500
O121        O  0.48386276  0.13584801  0.64364648    -0.57800
O122        O  0.53826942  0.15090061  0.68616627    -0.56600
C123        C  0.50311184  0.19096208  0.73744720     0.77100
O124        O  0.54862032  0.17649755  0.74037798    -0.59000
O125        O  0.51260979  0.16621497  0.62554480    -0.57500
O126        O  0.49578638  0.14218145  0.80311881    -0.57500
O127        O  0.48789610  0.17279047  0.72232350    -0.56600
O128        O  0.48287817  0.12772110  0.23857167    -0.57800
C129        C  0.49353227  0.15353097  0.39125135     0.74800
O130        O  0.54956345  0.17895343  0.28699613    -0.59000
C131        C  0.49631811  0.12954510  0.20473061     0.74800
C132        C  0.50628703  0.19561653  0.24785578     0.77200
Cd133      Cd  0.50968506  0.16030945  0.28665148     1.37500
O134        O  0.48513383  0.13812584  0.35954495    -0.57800
O135        O  0.48971432  0.17693736  0.25319893    -0.56600
C136        C  0.55018731  0.16365232  0.30807910     0.77100
O137        O  0.52422036  0.19749092  0.25786025    -0.59000
O138        O  0.50812965  0.17152968  0.37357293    -0.57500
O139        O  0.51523291  0.14580834  0.20818454    -0.57500
O140        O  0.53212615  0.14741821  0.32083824    -0.56600
C141        C  0.45802707  0.02922731  0.01011192     0.86500
C142        C  0.45933430  0.04391216  0.05430526    -0.53800
C143        C  0.47669057  0.06464079  0.05096216     0.09400
C144        C  0.49073186  0.06901187  0.00282158     0.20300
C145        C  0.45781703  0.04128262  0.96111748    -0.54500
C146        C  0.47491356  0.06201338  0.95766564     0.09500
C147        C  0.48031159  0.03174861  0.00812579    -0.54000
C148        C  0.49725539  0.05230444  0.00534628     0.10100
H149        H  0.44788000  0.03823120  0.08600594     0.14600
H150        H  0.50462580  0.08579485  0.99907779     0.00300
H151        H  0.44553277  0.03471872  0.93166871     0.14900
H152        H  0.48262538  0.01825741  0.00961930     0.14700
O153        O  0.85925725  0.49122594  0.74881801    -0.57800
C154        C  0.82430582  0.48087110  0.60973191     0.74800
O155        O  0.80388842  0.43115671  0.74054867    -0.59000
C156        C  0.85430761  0.48824133  0.79612756     0.74800
C157        C  0.78505995  0.47442262  0.74163093     0.77200
Cd158      Cd  0.82115331  0.46976125  0.71752753     1.37500
O159        O  0.83823951  0.49420128  0.64112474    -0.57800
O160        O  0.80366863  0.49050592  0.73158688    -0.56600
C161        C  0.81725484  0.42850272  0.71562849     0.77100
O162        O  0.78356205  0.45639106  0.74356762    -0.59000
O163        O  0.80979505  0.46304862  0.62835137    -0.57500
O164        O  0.83434767  0.47888637  0.80615700    -0.57500
O165        O  0.83180242  0.44472657  0.69139717    -0.56600
O166        O  0.84147232  0.30870032  0.63967807    -0.57800
C167        C  0.85949328  0.32855132  0.79038086     0.74800
O168        O  0.80601215  0.33370627  0.73705525    -0.59000
C169        C  0.82599044  0.30519225  0.61047303     0.74800
C170        C  0.78988274  0.27360496  0.75119545     0.77200
Cd171      Cd  0.82490238  0.31452904  0.71726882     1.37500
O172        O  0.84002149  0.31516334  0.80193201    -0.57800
O173        O  0.80647008  0.27564522  0.72945520    -0.56600
C174        C  0.81928440  0.35060411  0.71260714     0.77100
O175        O  0.79013655  0.29078731  0.75895093    -0.59000
O176        O  0.86320603  0.33454390  0.74385390    -0.57500
O177        O  0.81054836  0.30562821  0.63128990    -0.57500
O178        O  0.83484407  0.35057158  0.69126227    -0.56600
O179        O  0.83942613  0.49275403  0.35744850    -0.57800
C180        C  0.85354236  0.48822401  0.20432208     0.74800
O181        O  0.80376296  0.43080105  0.25717419    -0.59000
C182        C  0.82427803  0.48133343  0.38898728     0.74800
C183        C  0.78468858  0.47379817  0.25386072     0.77200
Cd184      Cd  0.82015339  0.46902476  0.28193996     1.37500
O185        O  0.85784133  0.49316775  0.25129232    -0.57800
O186        O  0.80375479  0.48998600  0.25735186    -0.56600
C187        C  0.81600969  0.42756704  0.28516955     0.77100
O188        O  0.78241388  0.45563143  0.26130423    -0.59000
O189        O  0.83381195  0.47578410  0.19340886    -0.57500
O190        O  0.80761407  0.46515334  0.37047105    -0.57500
O191        O  0.82954543  0.44328769  0.31201118    -0.56600
O192        O  0.85910513  0.32930960  0.25256060    -0.57800
C193        C  0.82487013  0.30521033  0.38959686     0.74800
O194        O  0.80634109  0.33352440  0.24806057    -0.59000
C195        C  0.85465823  0.32628336  0.20507700     0.74800
C196        C  0.78410537  0.26902695  0.26119350     0.77200
Cd197      Cd  0.82068049  0.31148702  0.28184191     1.37500
O198        O  0.83964885  0.30829713  0.35828897    -0.57800
O199        O  0.80246244  0.27193240  0.27158785    -0.56600
C200        C  0.81558007  0.34811139  0.28147827     0.77100
O201        O  0.78325107  0.28582108  0.25807696    -0.59000
O202        O  0.80865410  0.30476294  0.37054740    -0.57500
O203        O  0.83479150  0.31499560  0.19428860    -0.57500
O204        O  0.82658465  0.34531962  0.31458577    -0.56600
C205        C  0.95421692  0.39104486  0.00128695     0.86500
C206        C  0.94026413  0.37765383  0.04732167    -0.53800
C207        C  0.91932955  0.37265767  0.04594789     0.09400
C208        C  0.91400919  0.38118614  0.99744820     0.20300
C209        C  0.94183594  0.37798882  0.95348398    -0.54500
C210        C  0.92086160  0.37263875  0.95200479     0.09500
C211        C  0.95148691  0.41053487  0.99870879    -0.54000
C212        C  0.93060692  0.40551060  0.99681517     0.10100
H213        H  0.94655510  0.37251318  0.07828290     0.14600
H214        H  0.89701345  0.37711687  0.99536656     0.00300
H215        H  0.94854078  0.37396262  0.92167367     0.14900
H216        H  0.96505188  0.42706454  0.99823980     0.14700
C217        C  0.95201502  0.52146446  0.00360915     0.86500
C218        C  0.93907052  0.52111271  0.95603860    -0.53800
C219        C  0.91795811  0.50415014  0.95476426     0.09400
C220        C  0.91176113  0.48938894  0.00281245     0.20300
C221        C  0.93840665  0.52163702  0.04859300    -0.54500
C222        C  0.91750926  0.50474125  0.04903540     0.09500
C223        C  0.94916691  0.49923793  0.00487198    -0.54000
C224        C  0.92838604  0.48245807  0.00385384     0.10100
H225        H  0.94589221  0.53386693  0.92752480     0.14600
H226        H  0.89491188  0.47544827  0.00330628     0.00300
H227        H  0.94407565  0.53457724  0.07607447     0.14900
H228        H  0.96275853  0.49693674  0.00455122     0.14700
O229        O  0.51870863  0.64277037  0.75313422    -0.57800
C230        C  0.50574847  0.65731142  0.60242950     0.74800
O231        O  0.45170545  0.62730631  0.72019161    -0.59000
C232        C  0.50566988  0.63033775  0.78748885     0.74800
C233        C  0.49573828  0.68843936  0.74333194     0.77200
Cd234      Cd  0.49119602  0.64839883  0.70856921     1.37500
O235        O  0.51237695  0.64817252  0.63202972    -0.57800
O236        O  0.51222903  0.68721213  0.73509140    -0.56600
C237        C  0.44820938  0.61170534  0.69219289     0.77100
O238        O  0.47769204  0.67113274  0.73811099    -0.59000
O239        O  0.49347071  0.66260868  0.62272360    -0.57500
O240        O  0.48706296  0.62760670  0.78637389    -0.57500
O241        O  0.46451126  0.61362690  0.66944224    -0.56600
O242        O  0.33195453  0.46432957  0.63431179    -0.57800
C243        C  0.35118557  0.47443098  0.79038104     0.74800
O244        O  0.35215786  0.52548301  0.71618354    -0.59000
C245        C  0.32210005  0.46996715  0.60413957     0.74800
C246        C  0.29231541  0.48142418  0.74283644     0.77200
Cd247      Cd  0.33239279  0.48650845  0.70818212     1.37500
O248        O  0.33869083  0.46067454  0.75762171    -0.57800
O249        O  0.29452725  0.46541504  0.74036032    -0.56600
C250        C  0.36817659  0.52937500  0.68863292     0.77100
O251        O  0.30893507  0.49951615  0.73262052    -0.59000
O252        O  0.35384262  0.49283887  0.78618363    -0.57500
O253        O  0.31656196  0.48223295  0.62294815    -0.57500
O254        O  0.36728292  0.51332106  0.66785518    -0.56600
O255        O  0.51576827  0.65078869  0.35096368    -0.57800
C256        C  0.51382100  0.63625699  0.19767267     0.74800
O257        O  0.45621252  0.62461135  0.24704270    -0.59000
C258        C  0.50701961  0.65753390  0.38134366     0.74800
C259        C  0.49704324  0.68932882  0.24930150     0.77200
Cd260      Cd  0.49408907  0.64928795  0.27453983     1.37500
O261        O  0.51843706  0.63706912  0.24485213    -0.57800
O262        O  0.51398182  0.68879411  0.25693199    -0.56600
C263        C  0.45171229  0.61036207  0.28078010     0.77100
O264        O  0.47938407  0.67138731  0.25079775    -0.59000
O265        O  0.50199870  0.64352130  0.18596573    -0.57500
O266        O  0.49347572  0.66129827  0.36150732    -0.57500
O267        O  0.46668470  0.61433513  0.31184163    -0.56600
O268        O  0.35222070  0.46685224  0.24909984    -0.57800
C269        C  0.32347009  0.46899034  0.38414191     0.74800
O270        O  0.35824110  0.52104105  0.24290154    -0.59000
C271        C  0.34650822  0.46509936  0.20256701     0.74800
C272        C  0.29297707  0.48212789  0.25307336     0.77200
Cd273      Cd  0.33309965  0.48489133  0.27877668     1.37500
O274        O  0.33458196  0.46448388  0.35533394    -0.57800
O275        O  0.29351172  0.46533797  0.26151076    -0.56600
C276        C  0.37010589  0.52867728  0.28206720     0.77100
O277        O  0.31107966  0.49969659  0.25356665    -0.59000
O278        O  0.31625153  0.47956096  0.36323330    -0.57500
O279        O  0.33315846  0.47069197  0.19251651    -0.57500
O280        O  0.36438539  0.51627096  0.32058769    -0.56600
C281        C  0.54556357  0.57300102  0.99345871     0.86500
C282        C  0.54453731  0.58458199  0.94432407    -0.53800
C283        C  0.52863387  0.58931519  0.94554653     0.09400
C284        C  0.51474150  0.58142490  0.99473720     0.20300
C285        C  0.54708062  0.58746807  0.03821263    -0.54500
C286        C  0.53105773  0.59193751  0.03888516     0.09500
C287        C  0.52254228  0.55313020  0.99706985    -0.54000
C288        C  0.50655751  0.55742138  0.99826759     0.10100
H289        H  0.55383200  0.58732011  0.90981861     0.14600
H290        H  0.50142455  0.58461268  0.99561254     0.00300
H291        H  0.55970532  0.59350237  0.06710469     0.14900
H292        H  0.51908733  0.53676793  0.99788382     0.14700
C293        C  0.41197652  0.43766557  0.99229730     0.86500
C294        C  0.39692600  0.43515303  0.03738949    -0.53800
C295        C  0.39260736  0.45123706  0.04045895     0.09400
C296        C  0.40351889  0.46821012  0.99736814     0.20300
C297        C  0.40013890  0.43928559  0.94458337    -0.54500
C298        C  0.39547730  0.45508353  0.94751042     0.09500
C299        C  0.43197087  0.46029950  0.99793785    -0.54000
C300        C  0.42763115  0.47619459  0.00026057     0.10100
H301        H  0.38984538  0.42156950  0.06369880     0.14600
H302        H  0.40060827  0.48160643  0.99941626     0.00300
H303        H  0.39579636  0.42905236  0.91133620     0.14900
H304        H  0.44838010  0.46358404  0.99797738     0.14700
O305        O  0.33722831  0.82119903  0.79880639    -0.57800
C306        C  0.32603016  0.80935002  0.60517776     0.74800
O307        O  0.35547629  0.79023264  0.73920768    -0.59000
C308        C  0.34873284  0.84072803  0.78585061     0.74800
C309        C  0.29316050  0.77027625  0.74384916     0.77200
Cd310      Cd  0.33424604  0.80632586  0.71231026     1.37500
O311        O  0.33436612  0.82592934  0.63322978    -0.57800
O312        O  0.29463770  0.78740100  0.72777282    -0.56600
C313        C  0.37061036  0.80054687  0.70710964     0.77100
O314        O  0.31067045  0.77056955  0.74675612    -0.59000
O315        O  0.32043157  0.79184472  0.62779933    -0.57500
O316        O  0.35215552  0.84444588  0.73820632    -0.57500
O317        O  0.36839093  0.81281773  0.67714258    -0.56600
O318        O  0.51256591  0.82278117  0.64573798    -0.57800
C319        C  0.50582081  0.83490171  0.80294505     0.74800
O320        O  0.45138855  0.78476466  0.73975137    -0.59000
C321        C  0.50157910  0.80685462  0.61625087     0.74800
C322        C  0.49631458  0.76762602  0.75119271     0.77200
Cd323      Cd  0.49070163  0.80277895  0.72406214     1.37500
O324        O  0.51625043  0.83913644  0.76100368    -0.57800
O325        O  0.51246970  0.78636463  0.74300148    -0.56600
C326        C  0.44899519  0.79823228  0.71474399     0.77100
O327        O  0.47803824  0.76583959  0.75097126    -0.59000
O328        O  0.49067939  0.81566528  0.80965385    -0.57500
O329        O  0.48687423  0.78978812  0.63747870    -0.57500
O330        O  0.46574290  0.81317100  0.69273967    -0.56600
O331        O  0.33495607  0.82270807  0.35421822    -0.57800
C332        C  0.34765122  0.83478150  0.19874988     0.74800
O333        O  0.34965596  0.78189080  0.25624511    -0.59000
C334        C  0.32466977  0.80631969  0.38302683     0.74800
C335        C  0.28984440  0.76539966  0.24341690     0.77200
Cd336      Cd  0.33070868  0.80117815  0.27514662     1.37500
O337        O  0.33539292  0.83449750  0.23378627    -0.57800
O338        O  0.29193488  0.78335148  0.25298212    -0.56600
C339        C  0.36590477  0.79405717  0.28378504     0.77100
O340        O  0.30685733  0.76479650  0.24539391    -0.59000
O341        O  0.35037549  0.81915627  0.19826206    -0.57500
O342        O  0.31685595  0.78839184  0.36107053    -0.57500
O343        O  0.36522929  0.80873709  0.30754235    -0.56600
O344        O  0.51206227  0.83931993  0.25749217    -0.57800
C345        C  0.49865195  0.80446403  0.39448241     0.74800
O346        O  0.44971213  0.78324577  0.26249741    -0.59000
C347        C  0.50837399  0.83540048  0.20998135     0.74800
C348        C  0.49546923  0.76729400  0.25702533     0.77200
Cd349      Cd  0.48876592  0.80137742  0.28595908     1.37500
O350        O  0.51086298  0.81970562  0.36403502    -0.57800
O351        O  0.51134608  0.78574774  0.26836398    -0.56600
C352        C  0.44635662  0.79573738  0.28873265     0.77100
O353        O  0.47706730  0.76523094  0.25761410    -0.59000
O354        O  0.48257761  0.78819877  0.37437552    -0.57500
O355        O  0.49721854  0.81579267  0.19788712    -0.57500
O356        O  0.46245269  0.81028241  0.31287808    -0.56600
C357        C  0.40941805  0.93544764  0.99854944     0.86500
C358        C  0.39668916  0.92330032  0.94972508    -0.53800
C359        C  0.39091724  0.90229274  0.94857547     0.09400
C360        C  0.39906852  0.89538005  0.99459231     0.20300
C361        C  0.39520735  0.92135086  0.04379918    -0.54500
C362        C  0.38996051  0.90048509  0.04194276     0.09500
C363        C  0.42887945  0.93235971  0.99825715    -0.54000
C364        C  0.42348646  0.91151419  0.99662398     0.10100
H365        H  0.39286804  0.93003226  0.91754831     0.14600
H366        H  0.39486006  0.87845919  0.99240146     0.00300
H367        H  0.39081008  0.92772525  0.07590666     0.14900
H368        H  0.44559082  0.94560007  0.00030733     0.14700
C369        C  0.53830916  0.93164931  0.00797425     0.86500
C370        C  0.53908200  0.91786182  0.05142808    -0.53800
C371        C  0.52292947  0.89672853  0.04997715     0.09400
C372        C  0.50712506  0.89120662  0.00491133     0.20300
C373        C  0.53756541  0.92015140  0.95767505    -0.54500
C374        C  0.52182387  0.89874923  0.95671641     0.09500
C375        C  0.51544203  0.92782672  0.01056900    -0.54000
C376        C  0.49916705  0.90690742  0.00919628     0.10100
H377        H  0.55136271  0.92437233  0.08119968     0.14600
H378        H  0.49360558  0.87420840  0.00462672     0.00300
H379        H  0.54713555  0.92838920  0.92418897     0.14900
H380        H  0.51226198  0.94074765  0.01189558     0.14700
O381        O  0.14060808  0.46396362  0.75229081    -0.57800
C382        C  0.17401847  0.47467805  0.61743907     0.74800
O383        O  0.19605456  0.52650392  0.74731666    -0.59000
C384        C  0.14456441  0.46927428  0.79910068     0.74800
C385        C  0.21424669  0.48289978  0.75103738     0.77200
Cd386      Cd  0.17887461  0.48816104  0.72296309     1.37500
O387        O  0.15838329  0.46491151  0.64876557    -0.57800
O388        O  0.19542629  0.46669677  0.74400081    -0.56600
C389        C  0.18541346  0.53074943  0.71632720     0.77100
O390        O  0.21613485  0.50103780  0.74754664    -0.59000
O391        O  0.19150866  0.49002834  0.63533157    -0.57500
O392        O  0.16424850  0.48186360  0.81025840    -0.57500
O393        O  0.17230512  0.51545379  0.68777136    -0.56600
O394        O  0.14489967  0.46097869  0.24727815    -0.57800
C395        C  0.17251459  0.47342687  0.39770604     0.74800
O396        O  0.21638579  0.50265508  0.27143131    -0.59000
C397        C  0.14674750  0.47400563  0.21232895     0.74800
C398        C  0.18508180  0.53008862  0.30669765     0.77200
Cd399      Cd  0.17877797  0.48827551  0.29260653     1.37500
O400        O  0.15645191  0.46827897  0.36896588    -0.57800
O401        O  0.16945509  0.51354107  0.32766007    -0.56600
C402        C  0.21507414  0.48520582  0.26071706     0.77100
O403        O  0.19850426  0.52739063  0.28228894    -0.59000
O404        O  0.19087725  0.48416549  0.37663152    -0.57500
O405        O  0.16380758  0.49237184  0.21300305    -0.57500
O406        O  0.19615780  0.46858208  0.26144165    -0.56600
C407        C  0.04836590  0.43751580  0.00889515     0.86500
C408        C  0.06080213  0.43598928  0.96216490    -0.53800
C409        C  0.08228480  0.45199078  0.96045919     0.09400
C410        C  0.08915957  0.46815575  0.00509725     0.20300
C411        C  0.06159679  0.43804735  0.05556145    -0.54500
C412        C  0.08290346  0.45402195  0.05385400     0.09500
C413        C  0.05237038  0.46013310  0.00379100    -0.54000
C414        C  0.07340546  0.47609089  0.00278822     0.10100
H415        H  0.05378851  0.42374396  0.93286384     0.14600
H416        H  0.10630052  0.48156718  0.00374011     0.00300
H417        H  0.05427134  0.42732342  0.08821357     0.14900
H418        H  0.03942963  0.46337907  0.00166514     0.14700
O419        O  0.15811018  0.64417098  0.64520833    -0.57800
C420        C  0.14632215  0.62803964  0.79904405     0.74800
O421        O  0.19934071  0.62695516  0.73556371    -0.59000
C422        C  0.17425937  0.65239222  0.61509239     0.74800
C423        C  0.21355245  0.68819771  0.74980758     0.77200
Cd424      Cd  0.17940237  0.64557848  0.72155836     1.37500
O425        O  0.16410807  0.62908460  0.80391450    -0.57800
O426        O  0.19471615  0.68417386  0.74037294    -0.56600
C427        C  0.18568340  0.60996278  0.71234250     0.77100
O428        O  0.21582315  0.67221382  0.75002385    -0.59000
O429        O  0.14408258  0.63670483  0.75920470    -0.57500
O430        O  0.19216836  0.65731027  0.63470493    -0.57500
O431        O  0.16970725  0.60987188  0.69289261    -0.56600
O432        O  0.13993390  0.63173210  0.25485959    -0.57800
C433        C  0.17151438  0.65099555  0.39512206     0.74800
O434        O  0.19539649  0.62382645  0.27652293    -0.59000
C435        C  0.14407804  0.62823004  0.20995085     0.74800
C436        C  0.21020164  0.68447378  0.25764935     0.77200
Cd437      Cd  0.17595687  0.64270160  0.28972284     1.37500
O438        O  0.15490456  0.64026839  0.36730646    -0.57800
O439        O  0.19151842  0.68094612  0.26709597    -0.56600
C440        C  0.18244565  0.60738149  0.30274074     0.77100
O441        O  0.21244581  0.66851587  0.26160745    -0.59000
O442        O  0.18958000  0.65840629  0.37306054    -0.57500
O443        O  0.16293280  0.63206773  0.20232994    -0.57500
O444        O  0.16662830  0.60738410  0.32272551    -0.56600
C445        C  0.04675165  0.56699326  0.00137884     0.86500
C446        C  0.05965130  0.57999496  0.04910282    -0.53800
C447        C  0.08027026  0.58407545  0.05144254     0.09400
C448        C  0.08636751  0.57527920  0.00523122     0.20300
C449        C  0.06128473  0.58108109  0.95664791    -0.54500
C450        C  0.08183181  0.58497733  0.95798983     0.09500
C451        C  0.04860222  0.54698966  0.00171837    -0.54000
C452        C  0.06922395  0.55136945  0.00382164     0.10100
H453        H  0.05375280  0.58676412  0.07671627     0.14600
H454        H  0.10304816  0.57843634  0.00663608     0.00300
H455        H  0.05613688  0.58774923  0.92696998     0.14900
H456        H  0.03468925  0.53067489  0.00015684     0.14700
C457        C  0.10576021  0.60578714  0.18265591    -0.26300
C458        C  0.12758920  0.61917567  0.16898601    -0.14400
C459        C  0.13351469  0.62224789  0.11653512     0.36200
C460        C  0.11762023  0.61103574  0.07911044    -0.25800
C461        C  0.09592435  0.59677590  0.09277528    -0.15000
C462        C  0.08986038  0.59432833  0.14522010     0.37300
N463        N  0.06782174  0.57969425  0.16062165    -0.89300
H464        H  0.10122511  0.60340444  0.22293194     0.18400
H465        H  0.12225607  0.61348163  0.03891097     0.18400
N466        N  0.15564342  0.63670283  0.10145014    -0.88300
H467        H  0.06611770  0.57997784  0.20044047     0.35800
H468        H  0.06391763  0.56416466  0.15143430     0.40900
H469        H  0.15986523  0.65216301  0.11205158     0.40500
H470        H  0.15729663  0.63691765  0.06139333     0.35400
C471        C  0.15271547  0.64186045  0.53430530    -0.26300
C472        C  0.17243789  0.65525736  0.55939973    -0.14400
C473        C  0.19081628  0.66976909  0.53008787     0.36200
C474        C  0.18964160  0.66890667  0.47631797    -0.25800
C475        C  0.17045191  0.65409360  0.45101656    -0.15000
C476        C  0.15156421  0.64115383  0.48036514     0.37300
N477        N  0.13144479  0.62655601  0.45586011    -0.89300
H478        H  0.13839676  0.63096992  0.55646195     0.18400
H479        H  0.20407534  0.67940868  0.45408227     0.18400
N480        N  0.21075547  0.68498489  0.55495836    -0.88300
H481        H  0.12010975  0.63034404  0.46761841     0.35800
H482        H  0.12621074  0.61102598  0.46885889     0.40900
H483        H  0.20802924  0.69555383  0.57560133     0.40500
H484        H  0.22276168  0.69427792  0.52780435     0.35400
C485        C  0.11688743  0.62536318  0.85396357    -0.26300
C486        C  0.12910014  0.61672001  0.83776263    -0.14400
C487        C  0.12527185  0.59743862  0.86002996     0.36200
C488        C  0.10983939  0.58747362  0.89912388    -0.25800
C489        C  0.09797070  0.59633747  0.91647032    -0.15000
C490        C  0.10159429  0.61550765  0.89373357     0.37300
N491        N  0.09049879  0.62550906  0.91232982    -0.89300
H492        H  0.11979130  0.64021895  0.83710664     0.18400
H493        H  0.10693064  0.57253309  0.91545987     0.18400
N494        N  0.13667336  0.58763019  0.84205646    -0.88300
H495        H  0.08210581  0.62697869  0.88159329     0.35800
H496        H  0.10206562  0.64095992  0.92475701     0.40900
H497        H  0.12530683  0.57220113  0.82908089     0.40500
H498        H  0.14485777  0.58611046  0.87319927     0.35400
C499        C  0.08203618  0.50963995  0.04580196    -0.26300
C500        C  0.07909022  0.49861460  0.99957753    -0.14400
C501        C  0.07536300  0.50661115  0.95363197     0.36200
C502        C  0.07280732  0.52426286  0.95588546    -0.25800
C503        C  0.07445269  0.53443034  0.00259118    -0.15000
C504        C  0.07998132  0.52759537  0.04760306     0.37300
N505        N  0.08242825  0.53787754  0.09599930    -0.89300
H506        H  0.08431521  0.50332976  0.08135867     0.18400
H507        H  0.06893011  0.52973883  0.92109272     0.18400
N508        N  0.07294492  0.49653900  0.90466208    -0.88300
H509        H  0.06803261  0.53719947  0.10438757     0.35800
H510        H  0.09478829  0.55399177  0.09237952     0.40900
H511        H  0.07584256  0.48405324  0.90744752     0.40500
H512        H  0.08498224  0.50799190  0.88029626     0.35400
C513        C  0.19707382  0.58565569  0.27062197    -0.26300
C514        C  0.18521451  0.58884773  0.30814760    -0.14400
C515        C  0.17533176  0.57375878  0.34856162     0.36200
C516        C  0.17597364  0.55491987  0.34799540    -0.25800
C517        C  0.18687592  0.55117086  0.30886588    -0.15000
C518        C  0.19804748  0.56701642  0.27047083     0.37300
N519        N  0.20967435  0.56385821  0.23031883    -0.89300
H520        H  0.20489253  0.59733743  0.23992546     0.18400
H521        H  0.16779300  0.54302896  0.37812104     0.18400
N522        N  0.16472755  0.57760675  0.38999581    -0.88300
H523        H  0.21758023  0.57736923  0.20636640     0.35800
H524        H  0.19832345  0.55123636  0.20738885     0.40900
H525        H  0.17652202  0.59123637  0.40956545     0.40500
H526        H  0.15831242  0.56494191  0.41654410     0.35400
C527        C  0.11116667  0.47922061  0.11412232    -0.26300
C528        C  0.09845669  0.45817201  0.09591337    -0.14400
C529        C  0.10152046  0.44204096  0.11692364     0.36200
C530        C  0.11710276  0.44739991  0.15525957    -0.25800
C531        C  0.12989596  0.46853766  0.17303781    -0.15000
C532        C  0.12657774  0.48448327  0.15270479     0.37300
N533        N  0.13843594  0.50598262  0.17207103    -0.89300
H534        H  0.10900821  0.49171341  0.09866503     0.18400
H535        H  0.11952588  0.43502923  0.17049425     0.18400
N536        N  0.08989245  0.42036271  0.09872870    -0.88300
H537        H  0.12734607  0.50967859  0.18638269     0.35800
H538        H  0.14670387  0.51639384  0.14136022     0.40900
H539        H  0.09141864  0.42048178  0.05873938     0.40500
H540        H  0.07361735  0.41316262  0.10839140     0.35400
C541        C  0.15281182  0.46395377  0.53630791    -0.26300
C542        C  0.17196162  0.46945592  0.56215416    -0.14400
C543        C  0.18982292  0.47248203  0.53376448     0.36200
C544        C  0.18901945  0.47205582  0.47998055    -0.25800
C545        C  0.17058815  0.46859569  0.45363098    -0.15000
C546        C  0.15188341  0.46342925  0.48218464     0.37300
N547        N  0.13247600  0.45894936  0.45643931    -0.89300
H548        H  0.13896214  0.46134891  0.55823623     0.18400
H549        H  0.20330573  0.47541210  0.45878487     0.18400
N550        N  0.20896433  0.47635881  0.55946844    -0.88300
H551        H  0.12060855  0.45645600  0.48310603     0.35800
H552        H  0.12643022  0.44444507  0.43689873     0.40900
H553        H  0.22194569  0.49112060  0.54667317     0.40500
H554        H  0.21187906  0.46438507  0.54851720     0.35400
C555        C  0.13372761  0.46451963  0.89092435    -0.26300
C556        C  0.12746047  0.46205077  0.83914522    -0.14400
C557        C  0.10558424  0.45437232  0.82730618     0.36200
C558        C  0.09085886  0.45032192  0.86753593    -0.25800
C559        C  0.09752393  0.45389497  0.91922472    -0.15000
C560        C  0.11903291  0.46025309  0.93091873     0.37300
N561        N  0.12590988  0.46214743  0.98344908    -0.89300
H562        H  0.15033223  0.46996185  0.90042039     0.18400
H563        H  0.07434748  0.44531585  0.85827262     0.18400
N564        N  0.09852054  0.45147842  0.77472389    -0.88300
H565        H  0.14230896  0.46736873  0.98548238     0.35800
H566        H  0.11745122  0.44676903  0.99965551     0.40900
H567        H  0.10595150  0.46665721  0.75750949     0.40500
H568        H  0.08185602  0.44513281  0.77288108     0.35400
C569        C  0.17643653  0.55571204  0.67480090    -0.26300
C570        C  0.18759073  0.55211780  0.71370106    -0.14400
C571        C  0.19989740  0.56867605  0.74954145     0.36200
C572        C  0.19986475  0.58787818  0.74686183    -0.25800
C573        C  0.18773315  0.59087671  0.70953552    -0.15000
C574        C  0.17655941  0.57491366  0.67195655     0.37300
N575        N  0.16537078  0.57823365  0.63091167    -0.89300
H576        H  0.16738381  0.54338616  0.64642075     0.18400
H577        H  0.20865956  0.60020344  0.77542708     0.18400
N578        N  0.21202458  0.56590300  0.78912630    -0.88300
H579        H  0.15782779  0.56487473  0.60675022     0.35800
H580        H  0.17697673  0.59105823  0.60853715     0.40900
H581        H  0.20093410  0.55426926  0.81475269     0.40500
H582        H  0.22100875  0.58000547  0.81040131     0.35400
C583        C  0.44797520  0.90434147  0.04803102    -0.26300
C584        C  0.43995856  0.90541274  0.99974845    -0.14400
C585        C  0.44928836  0.90293848  0.95491235     0.36200
C586        C  0.46746588  0.90091604  0.95907636    -0.25800
C587        C  0.47642915  0.90139697  0.00723385    -0.15000
C588        C  0.46609360  0.90239625  0.05213616     0.37300
N589        N  0.47435525  0.90250219  0.10221650    -0.89300
H590        H  0.44083696  0.90620151  0.08264435     0.18400
H591        H  0.47562866  0.90057444  0.92457325     0.18400
N592        N  0.44111948  0.90389831  0.90533506    -0.88300
H593        H  0.49013277  0.91576928  0.10487591     0.35800
H594        H  0.47491620  0.88858979  0.10612890     0.40900
H595        H  0.42534951  0.89062437  0.90255328     0.40500
H596        H  0.45004437  0.90231345  0.87612592     0.35400
C597        C  0.52055215  0.88663508  0.14199715    -0.26300
C598        C  0.52062235  0.88122019  0.09033683    -0.14400
C599        C  0.51917888  0.86165225  0.07881455     0.36200
C600        C  0.51653248  0.84757481  0.11877662    -0.25800
C601        C  0.51536180  0.85250110  0.17040324    -0.15000
C602        C  0.51805085  0.87259546  0.18218637     0.37300
N603        N  0.51713483  0.87828111  0.23454718    -0.89300
H604        H  0.52197525  0.90176349  0.15098014     0.18400
H605        H  0.51484709  0.83237629  0.10921924     0.18400
N606        N  0.52082098  0.85578602  0.02730458    -0.88300
H607        H  0.51802884  0.89299021  0.23614631     0.35800
H608        H  0.53094187  0.88060405  0.25311483     0.40900
H609        H  0.53503501  0.86826822  0.01071638     0.40500
H610        H  0.50762390  0.85348251  0.00605313     0.35400
C611        C  0.35029064  0.86516571  0.14748548    -0.26300
C612        C  0.35877753  0.85241467  0.16062743    -0.14400
C613        C  0.37804266  0.85648233  0.13673385     0.36200
C614        C  0.38762776  0.87224165  0.09845912    -0.25800
C615        C  0.37894989  0.88460562  0.08411759    -0.15000
C616        C  0.36018923  0.88126240  0.10925694     0.37300
N617        N  0.35102155  0.89380853  0.09528098    -0.89300
H618        H  0.33566153  0.86223103  0.16616595     0.18400
H619        H  0.40229366  0.87511266  0.08022810     0.18400
N620        N  0.38810749  0.84486936  0.15199788    -0.88300
H621        H  0.33734501  0.88940569  0.11765299     0.35800
H622        H  0.34576173  0.89015751  0.05724039     0.40900
H623        H  0.39328300  0.84908116  0.18998772     0.40500
H624        H  0.40196747  0.84959273  0.13004418     0.35400
C625        C  0.40190371  0.80640620  0.32025851    -0.26300
C626        C  0.38517955  0.79212482  0.28756092    -0.14400
C627        C  0.38802312  0.77767993  0.25760843     0.36200
C628        C  0.40795040  0.77874933  0.25943721    -0.25800
C629        C  0.42500004  0.79383003  0.29058458    -0.15000
C630        C  0.42160645  0.80746663  0.32197571     0.37300
N631        N  0.43822102  0.82279940  0.35529272    -0.89300
H632        H  0.39999712  0.81739754  0.34410319     0.18400
H633        H  0.41029270  0.76802893  0.23565777     0.18400
N634        N  0.37105739  0.76241495  0.22458277    -0.88300
H635        H  0.43219373  0.81966262  0.39289217     0.35800
H636        H  0.44168646  0.83810625  0.34483474     0.40900
H637        H  0.35833206  0.75136956  0.24811538     0.40500
H638        H  0.37613137  0.75362663  0.20388685     0.35400
C639        C  0.24985294  0.74493719  0.25217666    -0.26300
C640        C  0.26850477  0.74567301  0.23485709    -0.14400
C641        C  0.26680290  0.72665395  0.21704533     0.36200
C642        C  0.24707735  0.70708196  0.22208077    -0.25800
C643        C  0.22893435  0.70600215  0.24424323    -0.15000
C644        C  0.23017177  0.72537684  0.25736221     0.37300
N645        N  0.21224295  0.72572955  0.27883044    -0.89300
H646        H  0.25086831  0.75945785  0.26534460     0.18400
H647        H  0.24613854  0.69243308  0.21039015     0.18400
N648        N  0.28527787  0.72712142  0.19570522    -0.88300
H649        H  0.20745867  0.71676599  0.31290686     0.35800
H650        H  0.19949824  0.71880263  0.25253250     0.40900
H651        H  0.28949473  0.73611733  0.16172886     0.40500
H652        H  0.28136167  0.71167157  0.18546665     0.35400
C653        C  0.49608424  0.78788317  0.53396454    -0.26300
C654        C  0.50460266  0.80755494  0.55959753    -0.14400
C655        C  0.51334682  0.82667533  0.53024464     0.36200
C656        C  0.51232425  0.82544876  0.47603941    -0.25800
C657        C  0.50240098  0.80553980  0.45080938    -0.15000
C658        C  0.49474480  0.78661607  0.48020639     0.37300
N659        N  0.48526133  0.76607442  0.45546362    -0.89300
H660        H  0.48973899  0.77319495  0.55614536     0.18400
H661        H  0.51825435  0.83999398  0.45353198     0.18400
N662        N  0.52236625  0.84710292  0.55523049    -0.88300
H663        H  0.48014043  0.75374094  0.48263470     0.35800
H664        H  0.49735226  0.76614439  0.43361201     0.40900
H665        H  0.50976960  0.84720359  0.57427892     0.40500
H666        H  0.52841941  0.85952440  0.52804827     0.35400
C667        C  0.49740224  0.86826171  0.90037050    -0.26300
C668        C  0.51866913  0.88392764  0.91372928    -0.14400
C669        C  0.53595917  0.88347295  0.88946379     0.36200
C670        C  0.53146066  0.86756488  0.85305500    -0.25800
C671        C  0.51014425  0.85156371  0.84129867    -0.15000
C672        C  0.49295283  0.85204106  0.86540089     0.37300
N673        N  0.47072994  0.83651730  0.85448993    -0.89300
H674        H  0.48394536  0.86838112  0.91779955     0.18400
H675        H  0.54474942  0.86736513  0.83484558     0.18400
N676        N  0.55815714  0.89806134  0.90251204    -0.88300
H677        H  0.46723292  0.82136812  0.86641478     0.35800
H678        H  0.46825415  0.83634990  0.81485796     0.40900
H679        H  0.55992029  0.89813206  0.94241055     0.40500
H680        H  0.56294787  0.91342203  0.88941488     0.35400
C681        C  0.31055207  0.79030830  0.52331708    -0.26300
C682        C  0.32356776  0.80989602  0.54861115    -0.14400
C683        C  0.33544262  0.82883337  0.51889741     0.36200
C684        C  0.33477517  0.82761258  0.46477077    -0.25800
C685        C  0.32261751  0.80773287  0.43962364    -0.15000
C686        C  0.30997137  0.78901832  0.46966925     0.37300
N687        N  0.29680456  0.76843296  0.44613026    -0.89300
H688        H  0.30114416  0.77559639  0.54532952     0.18400
H689        H  0.34455312  0.84217570  0.44251177     0.18400
N690        N  0.34894863  0.84916116  0.54324589    -0.88300
H691        H  0.28084022  0.76201589  0.45821627     0.35800
H692        H  0.30193239  0.75833910  0.45940554     0.40900
H693        H  0.34397247  0.85951361  0.53112071     0.40500
H694        H  0.36481364  0.85547474  0.53046707     0.35400
C695        C  0.34865432  0.85384826  0.87374781    -0.26300
C696        C  0.35830866  0.85797558  0.82489769    -0.14400
C697        C  0.37779876  0.87779562  0.81567646     0.36200
C698        C  0.38769313  0.89243735  0.85627388    -0.25800
C699        C  0.37863630  0.88762538  0.90571078    -0.15000
C700        C  0.35844467  0.86851092  0.91385747     0.37300
N701        N  0.34720052  0.86383960  0.96192760    -0.89300
H702        H  0.33345156  0.83897924  0.88104444     0.18400
H703        H  0.40302636  0.90727515  0.84990950     0.18400
N704        N  0.38795291  0.88268531  0.76590342    -0.88300
H705        H  0.34533139  0.87666752  0.97093886     0.35800
H706        H  0.35640664  0.86237656  0.99047518     0.40900
H707        H  0.39327778  0.87211538  0.75961923     0.40500
H708        H  0.40174106  0.89814877  0.76531559     0.35400
C709        C  0.42567135  0.80928990  0.67308157    -0.26300
C710        C  0.42803893  0.79708960  0.71134566    -0.14400
C711        C  0.41087537  0.78525666  0.74665891     0.36200
C712        C  0.39214863  0.78608973  0.74316862    -0.25800
C713        C  0.39007490  0.79885564  0.70595856    -0.15000
C714        C  0.40706687  0.81048518  0.67011961     0.37300
N715        N  0.40566379  0.82371775  0.63120911    -0.89300
H716        H  0.43866944  0.81840962  0.64580889     0.18400
H717        H  0.37935127  0.77710977  0.77100669     0.18400
N718        N  0.41219815  0.77293914  0.78780198    -0.88300
H719        H  0.41879095  0.82983271  0.60589110     0.35800
H720        H  0.40702836  0.83703274  0.64964070     0.40900
H721        H  0.42564058  0.78308732  0.81041671     0.40500
H722        H  0.41399941  0.76084448  0.77225361     0.35400
C723        C  0.25137548  0.71243578  0.77777850    -0.26300
C724        C  0.23244899  0.71028258  0.75761242    -0.14400
C725        C  0.23310246  0.72899552  0.74007917     0.36200
C726        C  0.25279959  0.74879933  0.73961144    -0.25800
C727        C  0.27206537  0.75043715  0.75550673    -0.15000
C728        C  0.27102797  0.73217619  0.77696273     0.37300
N729        N  0.28999892  0.73335048  0.79669916    -0.89300
H730        H  0.25120261  0.69847569  0.79247017     0.18400
H731        H  0.25320259  0.76270667  0.72371077     0.18400
N732        N  0.21445950  0.72833185  0.71985897    -0.88300
H733        H  0.29242843  0.72253592  0.77620218     0.35800
H734        H  0.28714032  0.72840703  0.83516020     0.40900
H735        H  0.20247499  0.72228933  0.74829040     0.40500
H736        H  0.20885382  0.71816243  0.68804731     0.35400
C737        C  0.45236279  0.51105407  0.04383073    -0.26300
C738        C  0.44512697  0.49906956  0.99842424    -0.14400
C739        C  0.45631992  0.50808694  0.95216459     0.36200
C740        C  0.47544153  0.52830936  0.95241073    -0.25800
C741        C  0.48363997  0.53973131  0.99830728    -0.15000
C742        C  0.47154430  0.53140562  0.04438594     0.37300
N743        N  0.47878013  0.54245642  0.09263818    -0.89300
H744        H  0.44368845  0.50410548  0.07949267     0.18400
H745        H  0.48465681  0.53454516  0.91708687     0.18400
N746        N  0.44876360  0.49626050  0.90521996    -0.88300
H747        H  0.46712191  0.54568342  0.10512985     0.35800
H748        H  0.49308007  0.55732898  0.08832844     0.40900
H749        H  0.44632585  0.50556310  0.87874287     0.40500
H750        H  0.46091699  0.49414061  0.89078963     0.35400
C751        C  0.27376471  0.50154607  0.24045401    -0.26300
C752        C  0.27245426  0.48182073  0.24613555    -0.14400
C753        C  0.25177254  0.46283723  0.25040871     0.36200
C754        C  0.23319588  0.46429310  0.25244093    -0.25800
C755        C  0.23474758  0.48427023  0.25070523    -0.15000
C756        C  0.25545173  0.50306338  0.24337352     0.37300
N757        N  0.25870894  0.52410357  0.23994068    -0.89300
H758        H  0.28938106  0.51627405  0.23630902     0.18400
H759        H  0.21749212  0.44976254  0.25751699     0.18400
N760        N  0.24965771  0.44223783  0.25448752    -0.88300
H761        H  0.25467402  0.52796003  0.27509341     0.35800
H762        H  0.24892603  0.52425548  0.21071826     0.40900
H763        H  0.25470573  0.43932461  0.21949063     0.40500
H764        H  0.23345133  0.43003860  0.25915972     0.35400
C765        C  0.37983510  0.44649795  0.13209694    -0.26300
C766        C  0.37857137  0.45219261  0.08106843    -0.14400
C767        C  0.36451661  0.45952586  0.06975991     0.36200
C768        C  0.35370260  0.46284908  0.10993902    -0.25800
C769        C  0.35590744  0.45834808  0.16132840    -0.15000
C770        C  0.36843476  0.44920841  0.17219677     0.37300
N771        N  0.36976592  0.44293877  0.22384342    -0.89300
H772        H  0.39023191  0.44046812  0.14105174     0.18400
H773        H  0.34377899  0.46942368  0.10097605     0.18400
N774        N  0.36101619  0.46337306  0.01748086    -0.88300
H775        H  0.37972473  0.43663659  0.22531745     0.35800
H776        H  0.35428204  0.43044785  0.23445676     0.40900
H777        H  0.35054675  0.46909132  0.01581513     0.40500
H778        H  0.35322353  0.44859354  0.99875051     0.35400
C779        C  0.47897939  0.72916361  0.23182368    -0.26300
C780        C  0.49763163  0.74856558  0.24602401    -0.14400
C781        C  0.51706695  0.74893080  0.25378093     0.36200
C782        C  0.51675929  0.72951668  0.25220292    -0.25800
C783        C  0.49760200  0.70982433  0.24196307    -0.15000
C784        C  0.47872950  0.70990341  0.22936337     0.37300
N785        N  0.45912412  0.69035583  0.21551975    -0.89300
H786        H  0.46416727  0.72880909  0.22412759     0.18400
H787        H  0.53140996  0.72969601  0.26086894     0.18400
N788        N  0.53684103  0.76874739  0.26498450    -0.88300
H789        H  0.46195795  0.68523267  0.18059502     0.35800
H790        H  0.44661513  0.69311893  0.20888889     0.40900
H791        H  0.54108340  0.77846758  0.23216012     0.40500
H792        H  0.54942502  0.76606802  0.27127100     0.35400
C793        C  0.53062344  0.60081436  0.13144176    -0.26300
C794        C  0.52900766  0.60502760  0.07946421    -0.14400
C795        C  0.52424311  0.62082427  0.06673090     0.36200
C796        C  0.51999873  0.63119961  0.10607636    -0.25800
C797        C  0.52081160  0.62649783  0.15816093    -0.15000
C798        C  0.52643051  0.61123672  0.17097649     0.37300
N799        N  0.52701142  0.60567830  0.22379250    -0.89300
H800        H  0.53418693  0.58860509  0.14122542     0.18400
H801        H  0.51587634  0.64296917  0.09590697     0.18400
N802        N  0.52390698  0.62642668  0.01385814    -0.88300
H803        H  0.53196110  0.59465279  0.22649363     0.35800
H804        H  0.51118081  0.59782435  0.23795565     0.40900
H805        H  0.53964365  0.63338735  0.99959783     0.40500
H806        H  0.51988603  0.63813971  0.01091928     0.35400
C807        C  0.41645874  0.58410950  0.24041707    -0.26300
C808        C  0.43028129  0.59006431  0.28300354    -0.14400
C809        C  0.42358458  0.57629293  0.32623493     0.36200
C810        C  0.40357525  0.55682547  0.32571047    -0.25800
C811        C  0.39000152  0.55049421  0.28251141    -0.15000
C812        C  0.39643094  0.56454327  0.23958989     0.37300
N813        N  0.38287722  0.55884882  0.19492840    -0.89300
H814        H  0.42144866  0.59460869  0.20709899     0.18400
H815        H  0.39892436  0.54637499  0.35907218     0.18400
N816        N  0.43703265  0.58189761  0.37082547    -0.88300
H817        H  0.39042066  0.57051432  0.16609546     0.35800
H818        H  0.36901495  0.55881611  0.20561204     0.40900
H819        H  0.44028491  0.56977631  0.37738712     0.40500
H820        H  0.42835352  0.58230735  0.40236609     0.35400
C821        C  0.33258134  0.45936371  0.52333441    -0.26300
C822        C  0.31854259  0.46405334  0.54883910    -0.14400
C823        C  0.30325383  0.46598429  0.51965992     0.36200
C824        C  0.30415157  0.46582599  0.46569739    -0.25800
C825        C  0.31985031  0.46360978  0.43997931    -0.15000
C826        C  0.33339616  0.45916437  0.46925627     0.37300
N827        N  0.34888942  0.45571695  0.44456036    -0.89300
H828        H  0.34408158  0.45737410  0.54523436     0.18400
H829        H  0.29313514  0.46848225  0.44361058     0.18400
N830        N  0.28737742  0.46889169  0.54480814    -0.88300
H831        H  0.34588409  0.44070322  0.45628151     0.35800
H832        H  0.36427184  0.46740552  0.45753192     0.40900
H833        H  0.27730051  0.45496926  0.56615225     0.40500
H834        H  0.27754050  0.47030997  0.51780589     0.35400
C835        C  0.27194526  0.49759004  0.77447643    -0.26300
C836        C  0.27144379  0.47954826  0.75458453    -0.14400
C837        C  0.25129126  0.46142711  0.74026829     0.36200
C838        C  0.23251840  0.46224941  0.74343510    -0.25800
C839        C  0.23334593  0.48096715  0.75942823    -0.15000
C840        C  0.25318087  0.49851980  0.77715174     0.37300
N841        N  0.25438948  0.51751777  0.79622790    -0.89300
H842        H  0.28725462  0.51141948  0.78621553     0.18400
H843        H  0.21743205  0.44863619  0.72985833     0.18400
N844        N  0.24952078  0.44257684  0.71889537    -0.88300
H845        H  0.27023004  0.52909256  0.80661309     0.35800
H846        H  0.24512487  0.51323372  0.82986790     0.40900
H847        H  0.25504718  0.43598770  0.74604972     0.40500
H848        H  0.25919979  0.44693993  0.68600053     0.35400
C849        C  0.39257734  0.48065214  0.89001353    -0.26300
C850        C  0.38379833  0.45940537  0.90678470    -0.14400
C851        C  0.36370135  0.44315556  0.88626857     0.36200
C852        C  0.35337601  0.44841474  0.84873911    -0.25800
C853        C  0.36246450  0.46957834  0.83092207    -0.15000
C854        C  0.38238758  0.48589945  0.85183455     0.37300
N855        N  0.39250983  0.50766932  0.83346395    -0.89300
H856        H  0.40773937  0.49321206  0.90609130     0.18400
H857        H  0.33798147  0.43582306  0.83366787     0.18400
N858        N  0.35281187  0.42136437  0.90417898    -0.88300
H859        H  0.39679603  0.50783401  0.79500600     0.35800
H860        H  0.40690700  0.51768231  0.85321714     0.40900
H861        H  0.35177118  0.42117600  0.94429566     0.40500
H862        H  0.36151848  0.41441936  0.89306527     0.35400
C863        C  0.50724484  0.67438147  0.46398289    -0.26300
C864        C  0.51132426  0.66021928  0.43753098    -0.14400
C865        C  0.51714789  0.64750375  0.46590275     0.36200
C866        C  0.51679209  0.64786333  0.52018796    -0.25800
C867        C  0.51081373  0.66070418  0.54646582    -0.15000
C868        C  0.50728513  0.67504236  0.51789952     0.37300
N869        N  0.50324909  0.68991936  0.54372020    -0.89300
H870        H  0.50343395  0.68465800  0.44241169     0.18400
H871        H  0.51992499  0.63712936  0.54188843     0.18400
N872        N  0.52234695  0.63352074  0.43984145    -0.88300
H873        H  0.50077461  0.69917368  0.51718059     0.35800
H874        H  0.51722304  0.70057416  0.56416835     0.40900
H875        H  0.50827091  0.62150283  0.42202165     0.40500
H876        H  0.52683086  0.62576418  0.46625409     0.35400
C877        C  0.47983769  0.72905618  0.77465814    -0.26300
C878        C  0.49812607  0.74838085  0.75785138    -0.14400
C879        C  0.51679170  0.74825898  0.74306710     0.36200
C880        C  0.51616357  0.72866813  0.74233627    -0.25800
C881        C  0.49723678  0.70911418  0.75515158    -0.15000
C882        C  0.47920127  0.70953055  0.77375959     0.37300
N883        N  0.46007076  0.69005627  0.79062503    -0.89300
H884        H  0.46562011  0.72902228  0.78716795     0.18400
H885        H  0.53013937  0.72853386  0.72857191     0.18400
N886        N  0.53598867  0.76772900  0.72648738    -0.88300
H887        H  0.44817645  0.69306736  0.80237825     0.35800
H888        H  0.46421476  0.68454001  0.82310979     0.40900
H889        H  0.53253631  0.77220474  0.69127476     0.40500
H890        H  0.54848335  0.76501026  0.71928080     0.35400
C891        C  0.53329043  0.62890130  0.84184153    -0.26300
C892        C  0.51160704  0.61942015  0.82672107    -0.14400
C893        C  0.49594614  0.59948021  0.84935964     0.36200
C894        C  0.50217092  0.58995016  0.88660101    -0.25800
C895        C  0.52372891  0.59958343  0.90240382    -0.15000
C896        C  0.53948988  0.61934767  0.87943246     0.37300
N897        N  0.56170723  0.63060044  0.89477499    -0.89300
H898        H  0.54550421  0.64412204  0.82509314     0.18400
H899        H  0.48991712  0.57477944  0.90352159     0.18400
N900        N  0.47363998  0.58815322  0.83467638    -0.88300
H901        H  0.56838585  0.62151712  0.88491537     0.35800
H902        H  0.56255733  0.63264240  0.93462664     0.40900
H903        H  0.47260925  0.58582123  0.79491014     0.40500
H904        H  0.46698160  0.59727600  0.84466715     0.35400
C905        C  0.42215819  0.57781039  0.64657643    -0.26300
C906        C  0.42650141  0.59185711  0.68787674    -0.14400
C907        C  0.41062749  0.58592699  0.72648478     0.36200
C908        C  0.39117856  0.56597553  0.72362822    -0.25800
C909        C  0.38738574  0.55141288  0.68415479    -0.15000
C910        C  0.40275834  0.55763521  0.64426281     0.37300
N911        N  0.39878207  0.54342433  0.60202053    -0.89300
H912        H  0.43414732  0.58239835  0.61651639     0.18400
H913        H  0.37942928  0.56126496  0.75432236     0.18400
N914        N  0.41466437  0.59959449  0.76997676    -0.88300
H915        H  0.41176655  0.55039302  0.57619207     0.35800
H916        H  0.38539429  0.54143576  0.58197603     0.40900
H917        H  0.42695395  0.59993363  0.79160492     0.40500
H918        H  0.40111370  0.59308330  0.79403846     0.35400
C919        C  0.98747848  0.54161801  0.95638623    -0.26300
C920        C  0.97633825  0.53850203  0.00296281    -0.14400
C921        C  0.98890499  0.54595802  0.04841091     0.36200
C922        C  0.01156324  0.55714591  0.04573851    -0.25800
C923        C  0.02277094  0.56018831  0.99911525    -0.15000
C924        C  0.00997834  0.55157704  0.95389514     0.37300
N925        N  0.01873830  0.55085500  0.90513362    -0.89300
H926        H  0.97847460  0.53449540  0.92142349     0.18400
H927        H  0.02002867  0.56137865  0.08196864     0.18400
N928        N  0.97899162  0.54069598  0.09821865    -0.88300
H929        H  0.02865556  0.54459473  0.90934766     0.35800
H930        H  0.02704711  0.56609810  0.88849137     0.40900
H931        H  0.98418941  0.53181151  0.11818214     0.40500
H932        H  0.98431934  0.55500840  0.11813888     0.35400
C933        C  0.98899139  0.41270251  0.04848978    -0.26300
C934        C  0.97808220  0.39829450  0.00824878    -0.14400
C935        C  0.99010699  0.39237604  0.97710742     0.36200
C936        C  0.01284841  0.40423972  0.98016350    -0.25800
C937        C  0.02400125  0.42134768  0.01488190    -0.15000
C938        C  0.01145530  0.42431147  0.05245671     0.37300
N939        N  0.02049433  0.43961977  0.09377295    -0.89300
H940        H  0.97991534  0.41612517  0.07571949     0.18400
H941        H  0.02162401  0.39990535  0.95478291     0.18400
N942        N  0.97957092  0.37406054  0.94395835    -0.88300
H943        H  0.01660124  0.45129521  0.08723714     0.35800
H944        H  0.03718961  0.44766281  0.09634617     0.40900
H945        H  0.97073084  0.36047376  0.96734330     0.40500
H946        H  0.99080605  0.37201608  0.92392977     0.35400
C947        C  0.93259880  0.45603113  0.95458352    -0.26300
C948        C  0.92367603  0.46021593  0.99744134    -0.14400
C949        C  0.91407436  0.44455329  0.03680945     0.36200
C950        C  0.91479264  0.42574839  0.03404103    -0.25800
C951        C  0.92533898  0.42251820  0.99309816    -0.15000
C952        C  0.93362757  0.43747228  0.95228373     0.37300
N953        N  0.94381229  0.43420986  0.90920352    -0.89300
H954        H  0.93996208  0.46788243  0.92402381     0.18400
H955        H  0.90847646  0.41438307  0.06574123     0.18400
N956        N  0.90490050  0.44802657  0.08157179    -0.88300
H957        H  0.95973618  0.44725481  0.90687402     0.35800
H958        H  0.93575895  0.43423745  0.87593432     0.40900
H959        H  0.89246229  0.45027185  0.06984081     0.40500
H960        H  0.91683491  0.46204368  0.09926743     0.35400
C961        C  0.89280082  0.35242700  0.17778180    -0.26300
C962        C  0.87158411  0.33644309  0.16429148    -0.14400
C963        C  0.86644750  0.33210393  0.11156157     0.36200
C964        C  0.88220630  0.34402539  0.07394183    -0.25800
C965        C  0.90327368  0.36015813  0.08737665    -0.15000
C966        C  0.90852997  0.36439250  0.13999271     0.37300
N967        N  0.92947386  0.38159699  0.15530945    -0.89300
H968        H  0.89705170  0.35631959  0.21787360     0.18400
H969        H  0.87778737  0.34064276  0.03392987     0.18400
N970        N  0.84517170  0.31576866  0.09571438    -0.88300
H971        H  0.92748977  0.39246085  0.17685472     0.35800
H972        H  0.93632947  0.37523667  0.17914839     0.40900
H973        H  0.84646116  0.30462651  0.07351303     0.40500
H974        H  0.83897424  0.32292403  0.07236684     0.35400
C975        C  0.89122139  0.49987789  0.17939754    -0.26300
C976        C  0.87066413  0.49534030  0.16470400    -0.14400
C977        C  0.86624926  0.49559100  0.11202517     0.36200
C978        C  0.88197574  0.49937260  0.07524578    -0.25800
C979        C  0.90187845  0.50224477  0.08956542    -0.15000
C980        C  0.90680468  0.50310407  0.14241449     0.37300
N981        N  0.92741523  0.50682311  0.15835772    -0.89300
H982        H  0.89478582  0.49983644  0.21983005     0.18400
H983        H  0.87865559  0.50043053  0.03544568     0.18400
N984        N  0.84585180  0.49209613  0.09559670    -0.88300
H985        H  0.92845059  0.49386972  0.14618565     0.35800
H986        H  0.92850564  0.50712604  0.19856299     0.40900
H987        H  0.83871710  0.47884307  0.07106924     0.40500
H988        H  0.84875036  0.50553346  0.07440428     0.35400
C989        C  0.80353545  0.39162443  0.24687263    -0.26300
C990        C  0.81491719  0.40674293  0.28573141    -0.14400
C991        C  0.82570995  0.40201449  0.32356018     0.36200
C992        C  0.82518308  0.38266933  0.32159097    -0.25800
C993        C  0.81420333  0.36766288  0.28234990    -0.15000
C994        C  0.80304654  0.37214162  0.24465741     0.37300
N995        N  0.79160845  0.35722616  0.20382864    -0.89300
H996        H  0.79524168  0.39514478  0.21757596     0.18400
H997        H  0.83376100  0.37957351  0.35100770     0.18400
N998        N  0.83731107  0.41678141  0.36428054    -0.88300
H999        H  0.78518522  0.36345351  0.17819271     0.35800
H1000       H  0.77841063  0.34353432  0.22030491     0.40900
H1001       H  0.85340524  0.42087951  0.36258980     0.40500
H1002       H  0.83076583  0.40892562  0.39928624     0.35400
C1003       C  0.84558502  0.31197579  0.52706346    -0.26300
C1004       C  0.82597893  0.30172694  0.55444983    -0.14400
C1005       C  0.80630781  0.29045530  0.52722583     0.36200
C1006       C  0.80659720  0.29099492  0.47335208    -0.25800
C1007       C  0.82607258  0.30256678  0.44579795    -0.15000
C1008       C  0.84584725  0.31280457  0.47286163     0.37300
N1009       N  0.86600046  0.32502758  0.44561030    -0.89300
H1010       H  0.86068019  0.32063834  0.54796670     0.18400
H1011       H  0.79140989  0.28281125  0.45269948     0.18400
N1012       N  0.78604508  0.27896663  0.55441735    -0.88300
H1013       H  0.87899260  0.33141741  0.47121264     0.35800
H1014       H  0.86632362  0.33812688  0.42840496     0.40900
H1015       H  0.78571895  0.26647313  0.57484523     0.40500
H1016       H  0.77308450  0.27182272  0.52872846     0.35400
C1017       C  0.89563723  0.35772671  0.81972374    -0.26300
C1018       C  0.87668105  0.33783518  0.82981099    -0.14400
C1019       C  0.87354696  0.32841843  0.87917346     0.36200
C1020       C  0.88845363  0.33997818  0.91832971    -0.25800
C1021       C  0.90642504  0.36049045  0.90897963    -0.15000
C1022       C  0.91051021  0.36909141  0.85891652     0.37300
N1023       N  0.92935136  0.38967777  0.84815331    -0.89300
H1024       H  0.89846013  0.36503074  0.78192167     0.18400
H1025       H  0.88611547  0.33291871  0.95618675     0.18400
N1026       N  0.85521667  0.30730742  0.88955339    -0.88300
H1027       H  0.92429036  0.39955590  0.83301869     0.35800
H1028       H  0.93830210  0.38767710  0.81974423     0.40900
H1029       H  0.85527037  0.30290089  0.92778517     0.40500
H1030       H  0.85686520  0.29648366  0.86685393     0.35400
C1031       C  0.80637803  0.47877536  0.47206641    -0.26300
C1032       C  0.82566507  0.48570053  0.44499625    -0.14400
C1033       C  0.84521175  0.49427612  0.47270563     0.36200
C1034       C  0.84466368  0.49400242  0.52700629    -0.25800
C1035       C  0.82499781  0.48516120  0.55380726    -0.15000
C1036       C  0.80583671  0.47848769  0.52576903     0.37300
N1037       N  0.78558608  0.47145456  0.55070471    -0.89300
H1038       H  0.79137408  0.47279931  0.45126783     0.18400
H1039       H  0.85943068  0.49942564  0.54837491     0.18400
N1040       N  0.86532516  0.50217124  0.44595434    -0.88300
H1041       H  0.78769191  0.48338687  0.57627312     0.35800
H1042       H  0.78073231  0.45734606  0.57126826     0.40900
H1043       H  0.86463599  0.48911426  0.42784054     0.40500
H1044       H  0.87815358  0.50819582  0.47198195     0.35400
C1045       C  0.89272588  0.50380297  0.82410210    -0.26300
C1046       C  0.87076013  0.49405235  0.83727582    -0.14400
C1047       C  0.86460052  0.48771036  0.88884486     0.36200
C1048       C  0.88013187  0.49084745  0.92533231    -0.25800
C1049       C  0.90216294  0.50081257  0.91290434    -0.15000
C1050       C  0.90841306  0.50698048  0.86093254     0.37300
N1051       N  0.93035188  0.51537748  0.84488416    -0.89300
H1052       H  0.89761847  0.50827774  0.78441658     0.18400
H1053       H  0.87446335  0.48499016  0.96355051     0.18400
N1054       N  0.84245253  0.47756940  0.90461610    -0.88300
H1055       H  0.93221133  0.51901701  0.80552594     0.35800
H1056       H  0.93368887  0.50327597  0.85027192     0.40900
H1057       H  0.84149146  0.48677968  0.93387984     0.40500
H1058       H  0.83763864  0.46245834  0.91991856     0.35400
C1059       C  0.82823870  0.40493857  0.67608664    -0.26300
C1060       C  0.81629159  0.40776212  0.71420070    -0.14400
C1061       C  0.80414988  0.39100875  0.74999718     0.36200
C1062       C  0.80463910  0.37208389  0.74733388    -0.25800
C1063       C  0.81721601  0.36965497  0.71026606    -0.15000
C1064       C  0.82861113  0.38603039  0.67321810     0.37300
N1065       N  0.84044438  0.38342144  0.63259356    -0.89300
H1066       H  0.83729646  0.41754088  0.64797384     0.18400
H1067       H  0.79577632  0.35949729  0.77560596     0.18400
N1068       N  0.79184851  0.39339926  0.78972166    -0.88300
H1069       H  0.84817760  0.39709300  0.60913018     0.35800
H1070       H  0.82920850  0.37084023  0.60934784     0.40900
H1071       H  0.80282209  0.40541251  0.81452736     0.40500
H1072       H  0.78340105  0.37936272  0.81180688     0.35400
C1073       C  0.42407732  0.99455097  0.97901982    -0.26300
C1074       C  0.44047573  0.00514138  0.01614474    -0.14400
C1075       C  0.44215758  0.99200238  0.05428842     0.36200
C1076       C  0.43059337  0.96967483  0.04837624    -0.25800
C1077       C  0.41707562  0.95936704  0.00600427    -0.15000
C1078       C  0.41227432  0.97198961  0.97368097     0.37300
N1079       N  0.39533410  0.96226772  0.93624279    -0.89300
H1080       H  0.42039010  0.00364696  0.95299616     0.18400
H1081       H  0.43325596  0.96023578  0.07620296     0.18400
N1082       N  0.45622264  0.00040957  0.09818834    -0.88300
H1083       H  0.39420878  0.97385885  0.91527062     0.35800
H1084       H  0.38075568  0.95316290  0.95622457     0.40900
H1085       H  0.46375942  0.01691459  0.10191373     0.40500
H1086       H  0.46839827  0.99699883  0.09367420     0.35400
C1087       C  0.46517877  0.08384860  0.10962317    -0.26300
C1088       C  0.48176439  0.08138366  0.09023570    -0.14400
C1089       C  0.50307606  0.09516839  0.10794163     0.36200
C1090       C  0.50740216  0.11104954  0.14410135    -0.25800
C1091       C  0.49081482  0.11332786  0.16414371    -0.15000
C1092       C  0.46949560  0.09975975  0.14621885     0.37300
N1093       N  0.45239755  0.10237271  0.16456938    -0.89300
H1094       H  0.44885487  0.07354736  0.09552791     0.18400
H1095       H  0.52383265  0.12125112  0.15774428     0.18400
N1096       N  0.52032613  0.09264168  0.09096552    -0.88300
H1097       H  0.43769269  0.09108218  0.14770463     0.35800
H1098       H  0.45582515  0.11748026  0.15234435     0.40900
H1099       H  0.52707249  0.08982510  0.12324396     0.40500
H1100       H  0.53223688  0.10709368  0.07411624     0.35400
C1101       C  0.48131778  0.13113712  0.47166027    -0.26300
C1102       C  0.48803251  0.15081375  0.44687488    -0.14400
C1103       C  0.49272901  0.16871951  0.47700541     0.36200
C1104       C  0.49332225  0.16747706  0.53064246    -0.25800
C1105       C  0.48894915  0.14853644  0.55532061    -0.15000
C1106       C  0.48169230  0.12982310  0.52561165     0.37300
N1107       N  0.47606045  0.10974766  0.54877262    -0.89300
H1108       H  0.47730592  0.11711648  0.44909095     0.18400
H1109       H  0.49821021  0.18176697  0.55307071     0.18400
N1110       N  0.49758394  0.18846307  0.45321031    -0.88300
H1111       H  0.46324495  0.10523304  0.57430572     0.35800
H1112       H  0.48934058  0.11190181  0.56958053     0.40900
H1113       H  0.51302755  0.20054861  0.46484164     0.40500
H1114       H  0.48651953  0.19230379  0.46688849     0.35400
C1115       C  0.48497902  0.08814735  0.82577224    -0.26300
C1116       C  0.48546599  0.10718241  0.83705954    -0.14400
C1117       C  0.48161654  0.11069804  0.88860358     0.36200
C1118       C  0.47788518  0.09556106  0.92683013    -0.25800
C1119       C  0.47772607  0.07682338  0.91523498    -0.15000
C1120       C  0.48129086  0.07310636  0.86409011     0.37300
N1121       N  0.48222218  0.05469655  0.85029533    -0.89300
H1122       H  0.48812063  0.08512421  0.78698988     0.18400
H1123       H  0.47523352  0.09853380  0.96613899     0.18400
N1124       N  0.48146223  0.12939552  0.90369916    -0.88300
H1125       H  0.46726032  0.04085682  0.85808399     0.35800
H1126       H  0.49394901  0.05442552  0.87289082     0.40900
H1127       H  0.47001561  0.13038685  0.88160483     0.40500
H1128       H  0.49678068  0.14298843  0.89726139     0.35400
C1129       C  0.58499960  0.99019044  0.98267358    -0.26300
C1130       C  0.57869368  0.00114606  0.01570967    -0.14400
C1131       C  0.56306836  0.98900004  0.05399478     0.36200
C1132       C  0.55202083  0.96659772  0.05334039    -0.25800
C1133       C  0.55559758  0.95555063  0.01439787    -0.15000
C1134       C  0.57420614  0.96764905  0.98291659     0.37300
N1135       N  0.58421897  0.95812271  0.95575502    -0.89300
H1136       H  0.59849258  0.99884798  0.95671491     0.18400
H1137       H  0.53931402  0.95772934  0.08148403     0.18400
N1138       N  0.55745975  0.99932480  0.09215524    -0.88300
H1139       H  0.58093415  0.95784037  0.91655189     0.35800
H1140       H  0.57891045  0.94268726  0.96940518     0.40900
H1141       H  0.56009080  0.99488545  0.12839051     0.40500
H1142       H  0.54096828  0.99358318  0.08885903     0.35400
C1143       C  0.54541996  0.05010878  0.04681563    -0.26300
C1144       C  0.55656809  0.05438325  0.00016790    -0.14400
C1145       C  0.55018352  0.06169857  0.95736790     0.36200
C1146       C  0.53165276  0.06295628  0.96153755    -0.25800
C1147       C  0.51956848  0.05704621  0.00722431    -0.15000
C1148       C  0.52705222  0.05138217  0.05104951     0.37300
N1149       N  0.51614149  0.04623739  0.09994277    -0.89300
H1150       H  0.55059079  0.04487749  0.07988128     0.18400
H1151       H  0.52587475  0.06719928  0.92791499     0.18400
N1152       N  0.56116749  0.06666685  0.90862554    -0.88300
H1153       H  0.50988234  0.02995349  0.10736265     0.35800
H1154       H  0.50316296  0.04852185  0.09972100     0.40900
H1155       H  0.57450915  0.06495823  0.91001208     0.40500
H1156       H  0.56719919  0.08287711  0.90073739     0.35400
C1157       C  0.60926375  0.17955129  0.30251815    -0.26300
C1158       C  0.60776321  0.16078291  0.32134601    -0.14400
C1159       C  0.58753273  0.14374514  0.33888053     0.36200
C1160       C  0.56935791  0.14559469  0.33640805    -0.25800
C1161       C  0.57061372  0.16398062  0.31573933    -0.15000
C1162       C  0.59096313  0.18135411  0.29939478     0.37300
N1163       N  0.59297107  0.20050177  0.27829600    -0.89300
H1164       H  0.62469797  0.19272550  0.28888743     0.18400
H1165       H  0.55395380  0.13208820  0.34916893     0.18400
N1166       N  0.58506641  0.12414281  0.35759025    -0.88300
H1167       H  0.60880878  0.21126217  0.26598121     0.35800
H1168       H  0.58991858  0.20811697  0.30802936     0.40900
H1169       H  0.57371339  0.11157336  0.33450756     0.40500
H1170       H  0.57889665  0.12147923  0.39499812     0.35400
C1171       C  0.61904819  0.10523321  0.14834369    -0.26300
C1172       C  0.63531629  0.10527367  0.17749295    -0.14400
C1173       C  0.64061579  0.08970863  0.16706734     0.36200
C1174       C  0.62995465  0.07482368  0.12734450    -0.25800
C1175       C  0.61375485  0.07489214  0.09805653    -0.15000
C1176       C  0.60804449  0.09008966  0.10964100     0.37300
N1177       N  0.59052140  0.08979966  0.08381973    -0.89300
H1178       H  0.61434951  0.11672767  0.15639430     0.18400
H1179       H  0.63462534  0.06333951  0.11899785     0.18400
N1180       N  0.65691947  0.08902083  0.19623168    -0.88300
H1181       H  0.59645767  0.10479619  0.06642495     0.35800
H1182       H  0.57906257  0.08762054  0.11138618     0.40900
H1183       H  0.66889029  0.09082540  0.17075962     0.40500
H1184       H  0.64988219  0.07383117  0.21332950     0.35400
C1185       C  0.74246673  0.20884160  0.27118164    -0.26300
C1186       C  0.72363282  0.20826498  0.25611366    -0.14400
C1187       C  0.72555863  0.22717891  0.23591949     0.36200
C1188       C  0.74570881  0.24631775  0.23522286    -0.25800
C1189       C  0.76427273  0.24740144  0.25466082    -0.15000
C1190       C  0.76264584  0.22809410  0.27102332     0.37300
N1191       N  0.78084943  0.22751720  0.28963691    -0.89300
H1192       H  0.74137893  0.19445904  0.28609339     0.18400
H1193       H  0.74662030  0.26070346  0.22099643     0.18400
N1194       N  0.70745356  0.22760953  0.21585739    -0.88300
H1195       H  0.78712361  0.23742901  0.32182432     0.35800
H1196       H  0.79257975  0.23320261  0.26068852     0.40900
H1197       H  0.69666612  0.22484601  0.24567440     0.40500
H1198       H  0.69978012  0.21555201  0.18826058     0.35400
C1199       C  0.66187861  0.12799654  0.54632585    -0.26300
C1200       C  0.67782187  0.14708675  0.56984765    -0.14400
C1201       C  0.69431203  0.16345351  0.53891864     0.36200
C1202       C  0.69309081  0.16144304  0.48545680    -0.25800
C1203       C  0.67558909  0.14355983  0.46151341    -0.15000
C1204       C  0.66059731  0.12599885  0.49236707     0.37300
N1205       N  0.64346117  0.10674421  0.46910952    -0.89300
H1206       H  0.64954412  0.11512112  0.56991039     0.18400
H1207       H  0.70530242  0.17467767  0.46244525     0.18400
N1208       N  0.71237608  0.18241644  0.56044133    -0.88300
H1209       H  0.63347200  0.09571381  0.49727266     0.35800
H1210       H  0.65057649  0.09959047  0.44942159     0.40900
H1211       H  0.71970705  0.17780949  0.58783241     0.40500
H1212       H  0.70697284  0.19149846  0.57820495     0.35400
C1213       C  0.64832934  0.11093639  0.89543313    -0.26300
C1214       C  0.64327195  0.10526854  0.84347488    -0.14400
C1215       C  0.62856038  0.08344663  0.83093464     0.36200
C1216       C  0.61839500  0.06822597  0.87065256    -0.25800
C1217       C  0.62243392  0.07432624  0.92237666    -0.15000
C1218       C  0.63818377  0.09569276  0.93491642     0.37300
N1219       N  0.64361000  0.10187913  0.98778381    -0.89300
H1220       H  0.65988917  0.12747305  0.90553945     0.18400
H1221       H  0.60630213  0.05176197  0.86118571     0.18400
N1222       N  0.62343302  0.07680327  0.77827331    -0.88300
H1223       H  0.65542786  0.11820688  0.99055297     0.35800
H1224       H  0.65039620  0.09345533  0.00267263     0.40900
H1225       H  0.61413828  0.08277643  0.76424324     0.40500
H1226       H  0.61364358  0.06007757  0.77593440     0.35400
C1227       C  0.60166294  0.16174326  0.67478529    -0.26300
C1228       C  0.61421515  0.16875955  0.71971956    -0.14400
C1229       C  0.60790240  0.17722221  0.76017937     0.36200
C1230       C  0.58861188  0.17725151  0.75567297    -0.25800
C1231       C  0.57533859  0.16868699  0.71220553    -0.15000
C1232       C  0.58238384  0.16160900  0.67054710     0.37300
N1233       N  0.56977874  0.15399268  0.62426269    -0.89300
H1234       H  0.60661271  0.15578349  0.64298185     0.18400
H1235       H  0.58334149  0.18291786  0.78747184     0.18400
N1236       N  0.62060512  0.18516497  0.80621999    -0.88300
H1237       H  0.57707741  0.14912949  0.59754985     0.35800
H1238       H  0.56963729  0.16693477  0.60760488     0.40900
H1239       H  0.61920673  0.17199140  0.82579873     0.40500
H1240       H  0.61425447  0.19176122  0.83079398     0.35400
C1241       C  0.73338057  0.22905108  0.79090278    -0.26300
C1242       C  0.73196335  0.21142311  0.76583726    -0.14400
C1243       C  0.75091475  0.21354657  0.74487735     0.36200
C1244       C  0.77005803  0.23389496  0.74372352    -0.25800
C1245       C  0.77076430  0.25210276  0.76344044    -0.15000
C1246       C  0.75241652  0.24924848  0.79002588     0.37300
N1247       N  0.75225941  0.26647061  0.81547778    -0.89300
H1248       H  0.71920059  0.22745781  0.80908379     0.18400
H1249       H  0.78419017  0.23566745  0.72488246     0.18400
N1250       N  0.75047253  0.19542888  0.72238866    -0.88300
H1251       H  0.75389476  0.27774325  0.78819619     0.35800
H1252       H  0.76516480  0.27365145  0.84130765     0.40900
H1253       H  0.74762840  0.18458774  0.75210991     0.40500
H1254       H  0.76557842  0.19999853  0.70685912     0.35400
C1255       C  0.42236361  0.41420281  0.94262669    -0.26300
C1256       C  0.41880220  0.42097134  0.99027047    -0.14400
C1257       C  0.42619588  0.41566474  0.03488330     0.36200
C1258       C  0.43538972  0.40298090  0.03145949    -0.25800
C1259       C  0.43904102  0.39622536  0.98392090    -0.15000
C1260       C  0.43292826  0.40272861  0.93873229     0.37300
N1261       N  0.43887061  0.39924371  0.88864664    -0.89300
H1262       H  0.41895245  0.41958005  0.90729117     0.18400
H1263       H  0.44159013  0.40024258  0.06653626     0.18400
N1264       N  0.42599147  0.42448138  0.08377659    -0.88300
H1265       H  0.45567871  0.40901215  0.88539295     0.35800
H1266       H  0.43248845  0.40417491  0.85955324     0.40900
H1267       H  0.41720833  0.41177397  0.10957708     0.40500
H1268       H  0.44190946  0.43364860  0.09699978     0.35400
C1269       C  0.58850831  0.55771854  0.96659974    -0.26300
C1270       C  0.58316347  0.54215867  0.00559353    -0.14400
C1271       C  0.56887229  0.54076226  0.04532542     0.36200
C1272       C  0.55946673  0.55315561  0.04188571    -0.25800
C1273       C  0.56206105  0.56590486  0.99865726    -0.15000
C1274       C  0.57822964  0.56951601  0.96254377     0.37300
N1275       N  0.58448549  0.58507557  0.92205215    -0.89300
H1276       H  0.60012091  0.56043980  0.93732913     0.18400
H1277       H  0.54813931  0.55114585  0.07177838     0.18400
N1278       N  0.56222853  0.52626392  0.08865369    -0.88300
H1279       H  0.59632949  0.58548842  0.89845546     0.35800
H1280       H  0.59150916  0.60017688  0.93921052     0.40900
H1281       H  0.56877013  0.51667332  0.08905188     0.40500
H1282       H  0.54550482  0.51565637  0.08619300     0.35400
C1283       C  0.55076891  0.44830343  0.02231927    -0.26300
C1284       C  0.55590087  0.46414337  0.98484278    -0.14400
C1285       C  0.54236493  0.45899960  0.94166608     0.36200
C1286       C  0.52342427  0.43869570  0.93800463    -0.25800
C1287       C  0.51731860  0.42336660  0.97731104    -0.15000
C1288       C  0.53147402  0.42809601  0.01937703     0.37300
N1289       N  0.52596878  0.41337602  0.06134508    -0.89300
H1290       H  0.56102285  0.45213515  0.05575678     0.18400
H1291       H  0.51270520  0.43534464  0.90568018     0.18400
N1292       N  0.54744756  0.47465966  0.90216797    -0.88300
H1293       H  0.52400482  0.39914242  0.04716698     0.35800
H1294       H  0.51128945  0.41005560  0.07701197     0.40900
H1295       H  0.53462686  0.47720309  0.89946512     0.40500
H1296       H  0.54853426  0.46824379  0.86728786     0.35400
C1297       C  0.48477965  0.21313769  0.23994695    -0.26300
C1298       C  0.50472824  0.21456064  0.23469340    -0.14400
C1299       C  0.52331398  0.23475376  0.22357756     0.36200
C1300       C  0.52207245  0.25321394  0.22320939    -0.25800
C1301       C  0.50257811  0.25214122  0.23379380    -0.15000
C1302       C  0.48347737  0.23168747  0.23978256     0.37300
N1303       N  0.46301378  0.22979372  0.24804278    -0.89300
H1304       H  0.47030280  0.19763539  0.24728348     0.18400
H1305       H  0.53680367  0.26862702  0.21689607     0.18400
N1306       N  0.54370129  0.23677065  0.21414459    -0.88300
H1307       H  0.45075786  0.21371918  0.25334164     0.35800
H1308       H  0.45920912  0.23497027  0.21440817     0.40900
H1309       H  0.55470858  0.24718261  0.24156621     0.40500
H1310       H  0.54921100  0.24381471  0.17789235     0.35400
C1311       C  0.48403995  0.34746737  0.05871328    -0.26300
C1312       C  0.47606745  0.36062656  0.07166922    -0.14400
C1313       C  0.47235100  0.36260246  0.12429332     0.36200
C1314       C  0.47589758  0.35080744  0.16178289    -0.25800
C1315       C  0.48379913  0.33759346  0.14846646    -0.15000
C1316       C  0.48791645  0.33605177  0.09609794     0.37300
N1317       N  0.49644371  0.32322542  0.08037230    -0.89300
H1318       H  0.48761299  0.34605001  0.01924988     0.18400
H1319       H  0.47319204  0.35258307  0.20191598     0.18400
N1320       N  0.46588687  0.37720829  0.13997893    -0.88300
H1321       H  0.51113763  0.33322506  0.06144284     0.35800
H1322       H  0.48571035  0.31184515  0.05404735     0.40900
H1323       H  0.47844624  0.39275838  0.13059062     0.40500
H1324       H  0.46395612  0.37680953  0.17987239     0.35400
C1325       C  0.63969699  0.51307908  0.08392932    -0.26300
C1326       C  0.61740910  0.50433085  0.08893847    -0.14400
C1327       C  0.60673186  0.49291993  0.13432286     0.36200
C1328       C  0.61857036  0.49005748  0.17269195    -0.25800
C1329       C  0.64084124  0.49823226  0.16721161    -0.15000
C1330       C  0.65147685  0.51010904  0.12215398     0.37300
N1331       N  0.67422259  0.51966839  0.11427140    -0.89300
H1332       H  0.64805807  0.52234320  0.04988418     0.18400
H1333       H  0.61004458  0.48080060  0.20662612     0.18400
N1334       N  0.58394438  0.48366590  0.14255848    -0.88300
H1335       H  0.67763006  0.50752274  0.11165762     0.35800
H1336       H  0.68241580  0.52945202  0.14571473     0.40900
H1337       H  0.57661322  0.48636435  0.11145813     0.40500
H1338       H  0.58214799  0.49137849  0.17414042     0.35400
C1339       C  0.59705833  0.40366184  0.32195577    -0.26300
C1340       C  0.61111643  0.40972066  0.27963014    -0.14400
C1341       C  0.60539464  0.39559800  0.23758553     0.36200
C1342       C  0.58548558  0.37599098  0.23843890    -0.25800
C1343       C  0.57106595  0.37043874  0.27977176    -0.15000
C1344       C  0.57714263  0.38416898  0.32262351     0.37300
N1345       N  0.56314043  0.37829881  0.36667069    -0.89300
H1346       H  0.60153397  0.41427452  0.35468779     0.18400
H1347       H  0.58082023  0.36538918  0.20564460     0.18400
N1348       N  0.61937144  0.40139885  0.19353835    -0.88300
H1349       H  0.56995715  0.39033059  0.39454589     0.35800
H1350       H  0.56191093  0.36466672  0.38327452     0.40900
H1351       H  0.61970059  0.41431675  0.17527894     0.40500
H1352       H  0.61300157  0.38889470  0.16687434     0.35400
C1353       C  0.72756102  0.46002705  0.22715397    -0.26300
C1354       C  0.72839481  0.47857884  0.24472560    -0.14400
C1355       C  0.74864573  0.49664276  0.25870917     0.36200
C1356       C  0.76710219  0.49508037  0.25867817    -0.25800
C1357       C  0.76584594  0.47597526  0.24469363    -0.15000
C1358       C  0.74603895  0.45862441  0.22681616     0.37300
N1359       N  0.74453937  0.43944504  0.20867428    -0.89300
H1360       H  0.71232708  0.44616875  0.21516121     0.18400
H1361       H  0.78236155  0.50857576  0.27181633     0.18400
N1362       N  0.75036227  0.51624678  0.27466073    -0.88300
H1363       H  0.73903188  0.43695317  0.17070670     0.35800
H1364       H  0.73298899  0.42653959  0.23092259     0.40900
H1365       H  0.74696022  0.52264405  0.24264724     0.40500
H1366       H  0.76620919  0.52762222  0.28547751     0.35400
C1367       C  0.48139305  0.30936809  0.51534062    -0.26300
C1368       C  0.48989867  0.29853493  0.54128457    -0.14400
C1369       C  0.49721350  0.28737963  0.51215393     0.36200
C1370       C  0.49785949  0.28889358  0.45845302    -0.25800
C1371       C  0.49071132  0.30082467  0.43245129    -0.15000
C1372       C  0.48156812  0.31049344  0.46102467     0.37300
N1373       N  0.47376301  0.32248075  0.43520105    -0.89300
H1374       H  0.47554731  0.31780814  0.53742681     0.18400
H1375       H  0.50441499  0.28094999  0.43691125     0.18400
N1376       N  0.50415778  0.27453534  0.53697454    -0.88300
H1377       H  0.46850556  0.32939577  0.46191012     0.35800
H1378       H  0.46012135  0.31156274  0.41413642     0.40900
H1379       H  0.52014512  0.28035665  0.52604245     0.40500
H1380       H  0.49459110  0.25880513  0.52348587     0.35400
C1381       C  0.51180240  0.24524341  0.77308808    -0.26300
C1382       C  0.49771298  0.24666379  0.73864050    -0.14400
C1383       C  0.48413379  0.22887702  0.70737881     0.36200
C1384       C  0.48534671  0.21040884  0.70982501    -0.25800
C1385       C  0.50017106  0.20939227  0.74235767    -0.15000
C1386       C  0.51305820  0.22675256  0.77535183     0.37300
N1387       N  0.52739668  0.22567025  0.81120503    -0.89300
H1388       H  0.52221939  0.25871688  0.79765628     0.18400
H1389       H  0.47541639  0.19724266  0.68400895     0.18400
N1390       N  0.47004621  0.22995296  0.67071126    -0.88300
H1391       H  0.52305747  0.22762627  0.84818525     0.35800
H1392       H  0.54306306  0.23853722  0.80371818     0.40900
H1393       H  0.45428659  0.21729085  0.67830320     0.40500
H1394       H  0.47439723  0.22766184  0.63406215     0.35400
C1395       C  0.47842721  0.35179088  0.80608087    -0.26300
C1396       C  0.47888903  0.33347474  0.82023739    -0.14400
C1397       C  0.47505848  0.32670518  0.87228558     0.36200
C1398       C  0.47165354  0.33877969  0.90883472    -0.25800
C1399       C  0.47217232  0.35755474  0.89493898    -0.15000
C1400       C  0.47514595  0.36381664  0.84262993     0.37300
N1401       N  0.47566678  0.38272186  0.82570086    -0.89300
H1402       H  0.48137732  0.35729745  0.76648360     0.18400
H1403       H  0.46829638  0.33333279  0.94828045     0.18400
N1404       N  0.47475275  0.30770991  0.88803981    -0.88300
H1405       H  0.48739795  0.39582932  0.84679654     0.35800
H1406       H  0.46060826  0.38074574  0.83290503     0.40900
H1407       H  0.46153480  0.29460689  0.87025440     0.40500
H1408       H  0.47214623  0.30522525  0.92769696     0.35400
C1409       C  0.68446165  0.47361794  0.52773706    -0.26300
C1410       C  0.67598477  0.48416946  0.55457883    -0.14400
C1411       C  0.66943778  0.49631011  0.52645230     0.36200
C1412       C  0.67051559  0.49681409  0.47229730    -0.25800
C1413       C  0.67786435  0.48522569  0.44556790    -0.15000
C1414       C  0.68562064  0.47411396  0.47382461     0.37300
N1415       N  0.69437535  0.46307699  0.44766200    -0.89300
H1416       H  0.68992678  0.46458396  0.54893605     0.18400
H1417       H  0.66454132  0.50540570  0.45110411     0.18400
N1418       N  0.66073489  0.50731246  0.55239763    -0.88300
H1419       H  0.69911240  0.45549484  0.47396272     0.35800
H1420       H  0.70838855  0.47464795  0.42846434     0.40900
H1421       H  0.64505603  0.50131850  0.53881823     0.40500
H1422       H  0.67011047  0.52357572  0.54240648     0.35400
C1423       C  0.62813053  0.50377732  0.82274604    -0.26300
C1424       C  0.64332578  0.49844850  0.83758229    -0.14400
C1425       C  0.64801032  0.49890118  0.89072896     0.36200
C1426       C  0.63705485  0.50383878  0.92701053    -0.25800
C1427       C  0.62134090  0.50838439  0.91227583    -0.15000
C1428       C  0.61706184  0.50856390  0.85914692     0.37300
N1429       N  0.60068308  0.51219322  0.84084560    -0.89300
H1430       H  0.62409250  0.50336610  0.78248773     0.18400
H1431       H  0.64054568  0.50362168  0.96740660     0.18400
N1432       N  0.66371109  0.49436801  0.90942883    -0.88300
H1433       H  0.60522759  0.52797863  0.84878477     0.35800
H1434       H  0.58620634  0.50166646  0.85980785     0.40900
H1435       H  0.67840641  0.50450053  0.89068229     0.40500
H1436       H  0.65845682  0.47836705  0.90163100     0.35400
C1437       C  0.60376592  0.39062043  0.74402560    -0.26300
C1438       C  0.60662155  0.40726672  0.71135230    -0.14400
C1439       C  0.59055947  0.40293783  0.67466723     0.36200
C1440       C  0.57179577  0.38255069  0.67265170    -0.25800
C1441       C  0.56859509  0.36601720  0.70607674    -0.15000
C1442       C  0.58506676  0.36994233  0.74135366     0.37300
N1443       N  0.58281273  0.35309735  0.77443176    -0.89300
H1444       H  0.61616933  0.39371886  0.77178957     0.18400
H1445       H  0.55950891  0.37981683  0.64487533     0.18400
N1446       N  0.59318174  0.41909890  0.63893910    -0.88300
H1447       H  0.59607694  0.35888605  0.79905433     0.35800
H1448       H  0.58307993  0.34165636  0.75105820     0.40900
H1449       H  0.58022463  0.42131997  0.64369753     0.40500
H1450       H  0.59241892  0.41339575  0.60171821     0.35400
C1451       C  0.74565257  0.49378796  0.73308320    -0.26300
C1452       C  0.72671196  0.47604335  0.75332465    -0.14400
C1453       C  0.72777529  0.45888841  0.77510074     0.36200
C1454       C  0.74719306  0.45909849  0.77215977    -0.25800
C1455       C  0.76578938  0.47623841  0.74896467    -0.15000
C1456       C  0.76510906  0.49405806  0.73032016     0.37300
N1457       N  0.78381063  0.51197351  0.70655132    -0.89300
H1458       H  0.74503309  0.50707650  0.71669966     0.18400
H1459       H  0.74769576  0.44558729  0.78746978     0.18400
N1460       N  0.70911247  0.44116217  0.79949084    -0.88300
H1461       H  0.78078114  0.52399418  0.69658905     0.35800
H1462       H  0.78664496  0.50656502  0.67206464     0.40900
H1463       H  0.70557598  0.44714270  0.83196862     0.40500
H1464       H  0.71253538  0.42977892  0.81280142     0.35400
loop_ 
_geom_bond_atom_site_label_1 
_geom_bond_atom_site_label_2 
_geom_bond_distance 
_geom_bond_site_symmetry_2 
_ccdc_geom_bond_type 
O1            C4   1.270       .  A
O1           Cd6   2.518       .  S
C2           O11   1.262       .  A
C2            O7   1.267       .  A
C2         C1424   1.494       .  S
O3            C9   1.265       .  A
O3           Cd6   2.474       .  S
C4           O12   1.264       .  A
C4         C1410   1.489       .  S
C5           O10   1.265       .  A
C5            O8   1.269       .  A
C5         C1452   1.489       .  S
Cd6          O13   2.435       .  S
Cd6          O12   2.437       .  S
Cd6          O11   2.465       .  S
Cd6           O7   2.509       .  S
Cd6          O10   2.456       .  S
Cd6           O8   2.480       .  S
C9           O13   1.263       .  A
C9         C1438   1.481       .  S
O14          C17   1.266       .  A
O14         Cd19   2.452       .  S
C15          O24   1.262       .  A
C15          O20   1.264       .  A
C15        C1441   1.481       .  S
O16          C22   1.270       .  A
O16         Cd19   2.521       .  S
C17          O25   1.269       .  A
C17        C1382   1.482       .  S
C18          O23   1.264       .  A
C18          O21   1.265       .  A
C18        C1396   1.491       .  S
Cd19         O26   2.434       .  S
Cd19         O25   2.473       .  S
Cd19         O24   2.429       .  S
Cd19         O20   2.478       .  S
Cd19         O23   2.481       .  S
Cd19         O21   2.491       .  S
C22          O26   1.264       .  A
C22        C1368   1.487       .  S
O27          C30   1.264       .  A
O27         Cd32   2.478       .  S
C28          O37   1.262       .  A
C28          O33   1.271       .  A
C28        C1413   1.485       .  S
O29          C35   1.266       .  A
O29         Cd32   2.459       .  S
C30          O38   1.264       .  A
C30        C1329   1.491       .  S
C31          O36   1.267       .  A
C31          O34   1.268       .  A
C31        C1354   1.487       .  S
Cd32         O39   2.409       .  S
Cd32         O38   2.490       .  S
Cd32         O37   2.411       .  S
Cd32         O33   2.521       .  S
Cd32         O36   2.448       .  S
Cd32         O34   2.453       .  S
C35          O39   1.263       .  A
C35        C1340   1.476       .  S
O40          C43   1.270       .  A
O40         Cd45   2.508       .  S
C41          O50   1.263       .  A
C41          O46   1.267       .  A
C41        C1315   1.492       .  S
O42          C48   1.265       .  A
O42         Cd45   2.460       .  S
C43          O51   1.264       .  A
C43        C1371   1.483       .  S
C44          O49   1.266       .  A
C44          O47   1.269       .  A
C44        C1301   1.492       .  S
Cd45         O52   2.440       .  S
Cd45         O51   2.422       .  S
Cd45         O50   2.459       .  S
Cd45         O46   2.499       .  S
Cd45         O49   2.445       .  S
Cd45         O47   2.492       .  S
C48          O52   1.263       .  A
C48        C1343   1.474       .  S
C53          C54   1.538       .  S
C53          C59   1.537   1_554  S
C53          C57   1.555   1_554  S
C53        C1270   1.547       .  S
C54          H61   1.086       .  S
C54          C55   1.364       .  D
C55          C56   1.542   1_554  S
C55        C1326   1.481       .  S
C56          C60   1.536       .  S
C56          C58   1.542       .  S
C56          H62   1.111       .  S
C57          H63   1.078       .  S
C57          C58   1.372       .  D
C58        C1427   1.493       .  S
C59          H64   1.087       .  S
C59          C60   1.360       .  D
C60        C1284   1.487       .  S
C65          C66   1.542       .  S
C65          C71   1.529       .  S
C65          C69   1.547   1_556  S
C65        C1259   1.542       .  S
C66          H73   1.084       .  S
C66          C67   1.368       .  D
C67          C68   1.547       .  S
C67        C1399   1.490       .  S
C68          C72   1.539       .  S
C68          C70   1.548   1_556  S
C68          H74   1.109       .  S
C69          H75   1.084       .  S
C69          C70   1.375       .  D
C70        C1312   1.501       .  S
C71          H76   1.088       .  S
C71          C72   1.357       .  D
C72        C1287   1.488       .  S
O77          C80   1.263       .  A
O77         Cd82   2.472       .  S
C78          O87   1.265       .  A
C78          O83   1.268       .  A
C78        C1200   1.482       .  S
O79          C85   1.263       .  A
O79         Cd82   2.506       .  S
C80          O88   1.263       .  A
C80        C1214   1.487       .  S
C81          O86   1.266       .  A
C81          O84   1.266       .  A
C81        C1242   1.483       .  S
Cd82         O89   2.458       .  S
Cd82         O88   2.463       .  S
Cd82         O87   2.438       .  S
Cd82         O83   2.487       .  S
Cd82         O86   2.438       .  S
Cd82         O84   2.475       .  S
C85          O89   1.263       .  A
C85        C1228   1.490       .  S
O90          C93   1.267       .  A
O90         Cd95   2.504       .  S
C91         O100   1.262       .  A
C91          O96   1.268       .  A
C91        C1172   1.485       .  S
O92          C98   1.266       .  A
O92         Cd95   2.472       .  S
C93         O101   1.263       .  A
C93        C1203   1.488       .  S
C94          O99   1.264       .  A
C94          O97   1.268       .  A
C94        C1186   1.482       .  S
Cd95        O102   2.448       .  S
Cd95        O101   2.443       .  S
Cd95        O100   2.430       .  S
Cd95         O96   2.504       .  S
Cd95         O99   2.429       .  S
Cd95         O97   2.472       .  S
C98         O102   1.265       .  A
C98        C1158   1.486       .  S
C103        C104   1.547   1_554  S
C103        C109   1.536   1_554  S
C103        C107   1.543       .  S
C103       C1130   1.533       .  S
C104        H111   1.082       .  S
C104        C105   1.369       .  D
C105        C106   1.535   1_556  S
C105       C1217   1.481       .  S
C106        C110   1.526   1_554  S
C106        C108   1.537       .  S
C106        H112   1.108   1_554  S
C107        H113   1.086       .  S
C107        C108   1.370       .  D
C108       C1175   1.491       .  S
C109        H114   1.087       .  S
C109        C110   1.357       .  D
C110       C1144   1.471   1_556  S
O115        C118   1.265       .  A
O115       Cd120   2.473       .  S
C116        O125   1.264       .  A
C116        O121   1.269       .  A
C116       C1105   1.481       .  S
O117        C123   1.267       .  A
O117       Cd120   2.466       .  S
C118        O126   1.263       .  A
C118       C1116   1.491       .  S
C119        O124   1.266       .  A
C119        O122   1.263       .  A
C119       C1231   1.483       .  S
Cd120       O127   2.452       .  S
Cd120       O126   2.478       .  S
Cd120       O125   2.427       .  S
Cd120       O121   2.521       .  S
Cd120       O124   2.494       .  S
Cd120       O122   2.440       .  S
C123        O127   1.267       .  A
C123       C1385   1.480       .  S
O128        C131   1.269       .  A
O128       Cd133   2.488       .  S
C129        O138   1.264       .  A
C129        O134   1.268       .  A
C129       C1102   1.485       .  S
O130        C136   1.268       .  A
O130       Cd133   2.473       .  S
C131        O139   1.263       .  A
C131       C1091   1.482       .  S
C132        O137   1.266       .  A
C132        O135   1.267       .  A
C132       C1298   1.489       .  S
Cd133       O140   2.443       .  S
Cd133       O139   2.435       .  S
Cd133       O138   2.432       .  S
Cd133       O134   2.518       .  S
Cd133       O137   2.458       .  S
Cd133       O135   2.492       .  S
C136        O140   1.266       .  A
C136       C1161   1.488       .  S
C141        C142   1.546       .  S
C141        C147   1.534       .  S
C141        C145   1.552   1_554  S
C141       C1074   1.547       .  S
C142        H149   1.086       .  S
C142        C143   1.374       .  D
C143        C144   1.538       .  S
C143       C1088   1.489       .  S
C144        C148   1.529       .  S
C144        C146   1.533   1_554  S
C144        H150   1.110   1_554  S
C145        H151   1.081       .  S
C145        C146   1.368       .  D
C146       C1119   1.480       .  S
C147        H152   1.087       .  S
C147        C148   1.355       .  D
C148       C1147   1.472       .  S
O153        C156   1.267       .  A
O153       Cd158   2.499       .  S
C154        O163   1.263       .  A
C154        O159   1.270       .  A
C154       C1035   1.482       .  S
O155        C161   1.267       .  A
O155       Cd158   2.485       .  S
C156        O164   1.264       .  A
C156       C1046   1.493       .  S
C157        O162   1.268       .  A
C157        O160   1.268       .  A
C157       C1455   1.489       .  S
Cd158       O165   2.436       .  S
Cd158       O164   2.454       .  S
Cd158       O163   2.426       .  S
Cd158       O159   2.514       .  S
Cd158       O162   2.465       .  S
Cd158       O160   2.471       .  S
C161        O165   1.264       .  A
C161       C1060   1.484       .  S
O166        C169   1.269       .  A
O166       Cd171   2.502       .  S
C167        O176   1.265       .  A
C167        O172   1.262       .  A
C167       C1018   1.480       .  S
O168        C174   1.266       .  A
O168       Cd171   2.484       .  S
C169        O177   1.263       .  A
C169       C1004   1.480       .  S
C170        O175   1.266       .  A
C170        O173   1.268       .  A
C170       C1245   1.485       .  S
Cd171       O178   2.434       .  S
Cd171       O177   2.411       .  S
Cd171       O176   2.470       .  S
Cd171       O172   2.451       .  S
Cd171       O175   2.439       .  S
Cd171       O173   2.445       .  S
C174        O178   1.262       .  A
C174       C1063   1.481       .  S
O179        C182   1.269       .  A
O179       Cd184   2.512       .  S
C180        O189   1.264       .  A
C180        O185   1.267       .  A
C180        C976   1.482       .  S
O181        C187   1.266       .  A
O181       Cd184   2.485       .  S
C182        O190   1.264       .  A
C182       C1032   1.485       .  S
C183        O188   1.265       .  A
C183        O186   1.268       .  A
C183       C1357   1.481       .  S
Cd184       O191   2.445       .  S
Cd184       O190   2.436       .  S
Cd184       O189   2.451       .  S
Cd184       O185   2.483       .  S
Cd184       O188   2.442       .  S
Cd184       O186   2.473       .  S
C187        O191   1.263       .  A
C187        C990   1.485       .  S
O192        C195   1.267       .  A
O192       Cd197   2.500       .  S
C193        O202   1.265       .  A
C193        O198   1.270       .  A
C193       C1007   1.482       .  S
O194        C200   1.265       .  A
O194       Cd197   2.496       .  S
C195        O203   1.263       .  A
C195        C962   1.491       .  S
C196        O201   1.266       .  A
C196        O199   1.267       .  A
C196       C1189   1.488       .  S
Cd197       O204   2.439       .  S
Cd197       O203   2.454       .  S
Cd197       O202   2.422       .  S
Cd197       O198   2.500       .  S
Cd197       O201   2.440       .  S
Cd197       O199   2.487       .  S
C200        O204   1.263       .  A
C200        C993   1.488       .  S
C205        C206   1.538       .  S
C205        C211   1.543   1_554  S
C205        C209   1.541   1_554  S
C205        C934   1.537       .  S
C206        H213   1.086       .  S
C206        C207   1.367       .  D
C207        C208   1.542   1_554  S
C207        C965   1.493       .  S
C208        C212   1.538       .  S
C208        C210   1.541       .  S
C208        H214   1.111       .  S
C209        H215   1.079       .  S
C209        C210   1.362       .  D
C210       C1021   1.474       .  S
C211        H216   1.087       .  S
C211        C212   1.363       .  D
C212        C951   1.487       .  S
C217        C218   1.547   1_554  S
C217        C223   1.529       .  S
C217        C221   1.537       .  S
C217        C920   1.538       .  S
C218        H225   1.084       .  S
C218        C219   1.377       .  D
C219        C220   1.552   1_556  S
C219       C1049   1.508       .  S
C220        C224   1.539       .  S
C220        C222   1.550       .  S
C220        H226   1.108       .  S
C221        H227   1.083       .  S
C221        C222   1.364       .  D
C222        C979   1.489       .  S
C223        H228   1.088       .  S
C223        C224   1.357       .  D
C224        C948   1.488   1_554  S
O229        C232   1.269       .  A
O229       Cd234   2.528       .  S
C230        O239   1.263       .  A
C230        O235   1.269       .  A
C230        C867   1.489       .  S
O231        C237   1.266       .  A
O231       Cd234   2.461       .  S
C232        O240   1.261       .  A
C232        C892   1.491       .  S
C233        O238   1.264       .  A
C233        O236   1.268       .  A
C233        C881   1.493       .  S
Cd234       O241   2.471       .  S
Cd234       O240   2.448       .  S
Cd234       O239   2.427       .  S
Cd234       O235   2.523       .  S
Cd234       O238   2.463       .  S
Cd234       O236   2.517       .  S
C237        O241   1.265       .  A
C237        C906   1.485       .  S
O242        C245   1.269       .  A
O242       Cd247   2.511       .  S
C243        O252   1.262       .  A
C243        O248   1.269       .  A
C243        C853   1.489       .  S
O244        C250   1.266       .  A
O244       Cd247   2.438       .  S
C245        O253   1.263       .  A
C245        C822   1.487       .  S
C246        O251   1.264       .  A
C246        O249   1.267       .  A
C246        C836   1.483       .  S
Cd247       O254   2.476       .  S
Cd247       O253   2.443       .  S
Cd247       O252   2.452       .  S
Cd247       O248   2.517       .  S
Cd247       O251   2.439       .  S
Cd247       O249   2.487       .  S
C250        O254   1.267       .  A
C250        C909   1.481       .  S
O255        C258   1.268       .  A
O255       Cd260   2.504       .  S
C256        O265   1.264       .  A
C256        O261   1.266       .  A
C256        C797   1.489       .  S
O257        C263   1.264       .  A
O257       Cd260   2.478       .  S
C258        O266   1.265       .  A
C258        C864   1.487       .  S
C259        O264   1.265       .  A
C259        O262   1.270       .  A
C259        C783   1.492       .  S
Cd260       O267   2.464       .  S
Cd260       O266   2.439       .  S
Cd260       O265   2.466       .  S
Cd260       O261   2.493       .  S
Cd260       O264   2.442       .  S
Cd260       O262   2.501       .  S
C263        O267   1.262       .  A
C263        C808   1.484       .  S
O268        C271   1.265       .  A
O268       Cd273   2.495       .  S
C269        O278   1.263       .  A
C269        O274   1.268       .  A
C269        C825   1.490       .  S
O270        C276   1.262       .  A
O270       Cd273   2.470       .  S
C271        O279   1.264       .  A
C271        C769   1.491       .  S
C272        O277   1.267       .  A
C272        O275   1.269       .  A
C272        C752   1.493       .  S
Cd273       O280   2.482       .  S
Cd273       O279   2.478       .  S
Cd273       O278   2.443       .  S
Cd273       O274   2.521       .  S
Cd273       O277   2.449       .  S
Cd273       O275   2.493       .  S
C276        O280   1.263       .  A
C276        C811   1.488       .  S
C281        C282   1.554       .  S
C281        C287   1.538       .  S
C281        C285   1.542   1_556  S
C281       C1273   1.545       .  S
C282        H289   1.076       .  S
C282        C283   1.373       .  D
C283        C284   1.540       .  S
C283        C895   1.492       .  S
C284        C288   1.533       .  S
C284        C286   1.538   1_556  S
C284        H290   1.110       .  S
C285        H291   1.086       .  S
C285        C286   1.367       .  D
C286        C794   1.488       .  S
C287        H292   1.087       .  S
C287        C288   1.356       .  D
C288        C741   1.478       .  S
C293        C294   1.547   1_556  S
C293        C299   1.532       .  S
C293        C297   1.550       .  S
C293       C1256   1.545       .  S
C294        H301   1.085       .  S
C294        C295   1.373       .  D
C295        C296   1.542   1_554  S
C295        C766   1.497       .  S
C296        C300   1.532   1_556  S
C296        C298   1.538       .  S
C296        H302   1.109       .  S
C297        H303   1.080       .  S
C297        C298   1.369       .  D
C298        C850   1.492       .  S
C299        H304   1.087       .  S
C299        C300   1.359   1_556  D
C300        C738   1.477   1_554  S
O305        C308   1.263       .  A
O305       Cd310   2.463       .  S
C306        O315   1.265       .  A
C306        O311   1.268       .  A
C306        C682   1.485       .  S
O307        C313   1.264       .  A
O307       Cd310   2.486       .  S
C308        O316   1.264       .  A
C308        C696   1.482       .  S
C309        O314   1.266       .  A
C309        O312   1.270       .  A
C309        C727   1.485       .  S
Cd310       O317   2.447       .  S
Cd310       O316   2.476       .  S
Cd310       O315   2.422       .  S
Cd310       O311   2.500       .  S
Cd310       O314   2.419       .  S
Cd310       O312   2.486       .  S
C313        O317   1.260       .  A
C313        C713   1.486       .  S
O318        C321   1.270       .  A
O318       Cd323   2.519       .  S
C319        O328   1.262       .  A
C319        O324   1.269       .  A
C319        C671   1.480       .  S
O320        C326   1.266       .  A
O320       Cd323   2.472       .  S
C321        O329   1.264       .  A
C321        C654   1.486       .  S
C322        O327   1.266       .  A
C322        O325   1.268       .  A
C322        C878   1.493       .  S
Cd323       O330   2.448       .  S
Cd323       O329   2.407       .  S
Cd323       O328   2.422       .  S
Cd323       O324   2.506       .  S
Cd323       O327   2.453       .  S
Cd323       O325   2.490       .  S
C326        O330   1.265       .  A
C326        C710   1.486       .  S
O331        C334   1.268       .  A
O331       Cd336   2.515       .  S
C332        O341   1.260       .  A
C332        O337   1.268       .  A
C332        C612   1.481       .  S
O333        C339   1.265       .  A
O333       Cd336   2.490       .  S
C334        O342   1.263       .  A
C334        C685   1.489       .  S
C335        O340   1.263       .  A
C335        O338   1.267       .  A
C335        C640   1.479       .  S
Cd336       O343   2.422       .  S
Cd336       O342   2.423       .  S
Cd336       O341   2.402       .  S
Cd336       O337   2.516       .  S
Cd336       O340   2.421       .  S
Cd336       O338   2.475       .  S
C339        O343   1.266       .  A
C339        C626   1.486       .  S
O344        C347   1.266       .  A
O344       Cd349   2.483       .  S
C345        O354   1.264       .  A
C345        O350   1.269       .  A
C345        C657   1.485       .  S
O346        C352   1.266       .  A
O346       Cd349   2.499       .  S
C347        O355   1.264       .  A
C347        C601   1.485       .  S
C348        O353   1.266       .  A
C348        O351   1.268       .  A
C348        C780   1.490       .  S
Cd349       O356   2.430       .  S
Cd349       O355   2.456       .  S
Cd349       O354   2.438       .  S
Cd349       O350   2.503       .  S
Cd349       O353   2.433       .  S
Cd349       O351   2.492       .  S
C352        O356   1.262       .  A
C352        C629   1.486       .  S
C357        C358   1.551       .  S
C357        C363   1.548       .  S
C357        C361   1.544   1_556  S
C357       C1077   1.547   1_556  S
C358        H365   1.078       .  S
C358        C359   1.366       .  D
C359        C360   1.534       .  S
C359        C699   1.482       .  S
C360        C364   1.532       .  S
C360        C362   1.537   1_556  S
C360        H366   1.111       .  S
C361        H367   1.086       .  S
C361        C362   1.367       .  D
C362        C615   1.485       .  S
C363        H368   1.087   1_556  S
C363        C364   1.363       .  D
C364        C584   1.486       .  S
C369        C370   1.533       .  S
C369        C375   1.537       .  S
C369        C373   1.545   1_554  S
C369       C1133   1.536       .  S
C370        H377   1.086       .  S
C370        C371   1.365       .  D
C371        C372   1.541       .  S
C371        C598   1.486       .  S
C372        C376   1.541       .  S
C372        C374   1.546   1_554  S
C372        H378   1.108       .  S
C373        H379   1.077       .  S
C373        C374   1.371       .  D
C374        C668   1.493       .  S
C375        H380   1.087       .  S
C375        C376   1.357       .  D
C376        C587   1.484       .  S
O381        C384   1.266       .  A
O381       Cd386   2.503       .  S
C382        O391   1.264       .  A
C382        O387   1.268       .  A
C382        C542   1.477       .  S
O383        C389   1.264       .  A
O383       Cd386   2.484       .  S
C384        O392   1.264       .  A
C384        C556   1.488       .  S
C385        O390   1.265       .  A
C385        O388   1.268       .  A
C385        C839   1.486       .  S
Cd386       O393   2.460       .  S
Cd386       O392   2.444       .  S
Cd386       O391   2.434       .  S
Cd386       O387   2.491       .  S
Cd386       O390   2.442       .  S
Cd386       O388   2.492       .  S
C389        O393   1.264       .  A
C389        C570   1.489       .  S
O394        C397   1.270       .  A
O394       Cd399   2.509       .  S
C395        O404   1.262       .  A
C395        O400   1.267       .  A
C395        C545   1.484       .  S
O396        C402   1.263       .  A
O396       Cd399   2.421       .  S
C397        O405   1.262       .  A
C397        C531   1.482       .  S
C398        O403   1.265       .  A
C398        O401   1.265       .  A
C398        C517   1.481       .  S
Cd399       O406   2.504       .  S
Cd399       O405   2.430       .  S
Cd399       O404   2.432       .  S
Cd399       O400   2.489       .  S
Cd399       O403   2.450       .  S
Cd399       O401   2.461       .  S
C402        O406   1.270       .  A
C402        C755   1.492       .  S
C407        C408   1.555   1_554  S
C407        C413   1.529       .  S
C407        C411   1.537       .  S
C407        C937   1.535       .  S
C408        H415   1.082       .  S
C408        C409   1.375       .  D
C409        C410   1.545   1_556  S
C409        C559   1.495       .  S
C410        C414   1.536       .  S
C410        C412   1.542       .  S
C410        H416   1.110       .  S
C411        H417   1.084       .  S
C411        C412   1.365       .  D
C412        C528   1.487       .  S
C413        H418   1.087       .  S
C413        C414   1.351       .  D
C414        C500   1.476   1_554  S
O419        C422   1.268       .  A
O419       Cd424   2.488       .  S
C420        O429   1.267       .  A
C420        O425   1.262       .  A
C420        C486   1.473       .  S
O421        C427   1.267       .  A
O421       Cd424   2.486       .  S
C422        O430   1.263       .  A
C422        C472   1.479       .  S
C423        O428   1.266       .  A
C423        O426   1.266       .  A
C423        C724   1.486       .  S
Cd424       O431   2.443       .  S
Cd424       O430   2.418       .  S
Cd424       O429   2.495       .  S
Cd424       O425   2.418       .  S
Cd424       O428   2.438       .  S
Cd424       O426   2.483       .  S
C427        O431   1.265       .  A
C427        C573   1.484       .  S
O432        C435   1.267       .  A
O432       Cd437   2.476       .  S
C433        O442   1.264       .  A
C433        O438   1.268       .  A
C433        C475   1.481       .  S
O434        C440   1.265       .  A
O434       Cd437   2.469       .  S
C435        O443   1.263       .  A
C435        C458   1.478       .  S
C436        O441   1.266       .  A
C436        O439   1.267       .  A
C436        C643   1.482       .  S
Cd437       O444   2.453       .  S
Cd437       O443   2.431       .  S
Cd437       O442   2.414       .  S
Cd437       O438   2.482       .  S
Cd437       O441   2.421       .  S
Cd437       O439   2.474       .  S
C440        O444   1.263       .  A
C440        C514   1.480       .  S
C445        C446   1.549       .  S
C445        C451   1.541       .  S
C445        C449   1.541   1_554  S
C445        C923   1.543   1_554  S
C446        H453   1.083       .  S
C446        C447   1.369       .  D
C447        C448   1.538       .  S
C447        C461   1.487       .  S
C448        C452   1.524       .  S
C448        C450   1.537   1_554  S
C448        H454   1.110       .  S
C449        H455   1.079       .  S
C449        C450   1.367       .  D
C450        C489   1.483       .  S
C451        H456   1.087       .  S
C451        C452   1.361       .  D
C452        C503   1.478       .  S
C457        C458   1.403       .  A
C457        C462   1.406       .  A
C457        H464   1.084       .  S
C458        C459   1.411       .  A
C459        C460   1.402       .  A
C459        N466   1.438       .  S
C460        C461   1.403       .  A
C460        H465   1.083       .  S
C461        C462   1.415       .  A
C462        N463   1.438       .  S
N463        H467   1.045       .  S
N463        H468   1.046       .  S
N466        H469   1.044       .  S
N466        H470   1.048       .  S
C471        C472   1.404       .  A
C471        C476   1.405       .  A
C471        H478   1.084       .  S
C472        C473   1.412       .  A
C473        C474   1.401       .  A
C473        N480   1.439       .  S
C474        C475   1.404       .  A
C474        H479   1.084       .  S
C475        C476   1.411       .  A
C476        N477   1.432       .  S
N477        H481   1.046       .  S
N477        H482   1.046       .  S
N480        H483   1.045       .  S
N480        H484   1.046       .  S
C485        C486   1.401       .  A
C485        C490   1.406       .  A
C485        H492   1.084       .  S
C486        C487   1.409       .  A
C487        C488   1.399       .  A
C487        N494   1.433       .  S
C488        C489   1.402       .  A
C488        H493   1.084       .  S
C489        C490   1.412       .  A
C490        N491   1.432       .  S
N491        H495   1.045       .  S
N491        H496   1.046       .  S
N494        H497   1.046       .  S
N494        H498   1.045       .  S
C499        C500   1.404   1_554  A
C499        C504   1.401       .  A
C499        H506   1.083       .  S
C500        C501   1.416       .  A
C501        C502   1.401       .  A
C501        N508   1.438       .  S
C502        C503   1.400   1_556  A
C502        H507   1.084       .  S
C503        C504   1.411       .  A
C504        N505   1.432       .  S
N505        H509   1.045       .  S
N505        H510   1.045       .  S
N508        H511   1.043       .  S
N508        H512   1.046       .  S
C513        C514   1.402       .  A
C513        C518   1.404       .  A
C513        H520   1.084       .  S
C514        C515   1.413       .  A
C515        C516   1.405       .  A
C515        N522   1.438       .  S
C516        C517   1.405       .  A
C516        H521   1.084       .  S
C517        C518   1.414       .  A
C518        N519   1.438       .  S
N519        H523   1.045       .  S
N519        H524   1.046       .  S
N522        H525   1.046       .  S
N522        H526   1.046       .  S
C527        C528   1.400       .  A
C527        C532   1.401       .  A
C527        H534   1.083       .  S
C528        C529   1.420       .  A
C529        C530   1.403       .  A
C529        N536   1.433       .  S
C530        C531   1.402       .  A
C530        H535   1.084       .  S
C531        C532   1.412       .  A
C532        N533   1.433       .  S
N533        H537   1.046       .  S
N533        H538   1.045       .  S
N536        H539   1.045       .  S
N536        H540   1.042       .  S
C541        C542   1.403       .  A
C541        C546   1.409       .  A
C541        H548   1.084       .  S
C542        C543   1.407       .  A
C543        C544   1.400       .  A
C543        N550   1.433       .  S
C544        C545   1.406       .  A
C544        H549   1.084       .  S
C545        C546   1.415       .  A
C546        N547   1.437       .  S
N547        H551   1.045       .  S
N547        H552   1.046       .  S
N550        H553   1.045       .  S
N550        H554   1.046       .  S
C555        C556   1.403       .  A
C555        C560   1.403       .  A
C555        H562   1.083       .  S
C556        C557   1.416       .  A
C557        C558   1.412       .  A
C557        N564   1.438       .  S
C558        C559   1.407       .  A
C558        H563   1.083       .  S
C559        C560   1.412       .  A
C560        N561   1.437       .  S
N561        H565   1.045       .  S
N561        H566   1.044       .  S
N564        H567   1.045       .  S
N564        H568   1.047       .  S
C569        C570   1.405       .  A
C569        C574   1.403       .  A
C569        H576   1.083       .  S
C570        C571   1.417       .  A
C571        C572   1.409       .  A
C571        N578   1.438       .  S
C572        C573   1.405       .  A
C572        H577   1.084       .  S
C573        C574   1.412       .  A
C574        N575   1.438       .  S
N575        H579   1.046       .  S
N575        H580   1.046       .  S
N578        H581   1.045       .  S
N578        H582   1.046       .  S
C583        C584   1.404   1_554  A
C583        C588   1.403       .  A
C583        H590   1.084       .  S
C584        C585   1.409       .  A
C585        C586   1.411       .  A
C585        N592   1.437       .  S
C586        C587   1.404   1_556  A
C586        H591   1.084       .  S
C587        C588   1.412       .  A
C588        N589   1.433       .  S
N589        H593   1.045       .  S
N589        H594   1.046       .  S
N592        H595   1.045       .  S
N592        H596   1.045       .  S
C597        C598   1.403       .  A
C597        C602   1.406       .  A
C597        H604   1.084       .  S
C598        C599   1.414       .  A
C599        C600   1.401       .  A
C599        N606   1.433       .  S
C600        C601   1.406       .  A
C600        H605   1.084       .  S
C601        C602   1.414       .  A
C602        N603   1.438       .  S
N603        H607   1.046       .  S
N603        H608   1.045       .  S
N606        H609   1.045       .  S
N606        H610   1.042       .  S
C611        C612   1.406       .  A
C611        C616   1.411       .  A
C611        H618   1.083       .  S
C612        C613   1.414       .  A
C613        C614   1.397       .  A
C613        N620   1.439       .  S
C614        C615   1.399       .  A
C614        H619   1.082       .  S
C615        C616   1.414       .  A
C616        N617   1.437       .  S
N617        H621   1.046       .  S
N617        H622   1.045       .  S
N620        H623   1.046       .  S
N620        H624   1.046       .  S
C625        C626   1.402       .  A
C625        C630   1.395       .  A
C625        H632   1.084       .  S
C626        C627   1.417       .  A
C627        C628   1.412       .  A
C627        N634   1.438       .  S
C628        C629   1.407       .  A
C628        H633   1.083       .  S
C629        C630   1.412       .  A
C630        N631   1.433       .  S
N631        H635   1.046       .  S
N631        H636   1.046       .  S
N634        H637   1.045       .  S
N634        H638   1.046       .  S
C639        C640   1.404       .  A
C639        C644   1.400       .  A
C639        H646   1.084       .  S
C640        C641   1.412       .  A
C641        C642   1.401       .  A
C641        N648   1.438       .  S
C642        C643   1.404       .  A
C642        H647   1.084       .  S
C643        C644   1.417       .  A
C644        N645   1.432       .  S
N645        H649   1.045       .  S
N645        H650   1.046       .  S
N648        H651   1.044       .  S
N648        H652   1.047       .  S
C653        C654   1.405       .  A
C653        C658   1.402       .  A
C653        H660   1.084       .  S
C654        C655   1.414       .  A
C655        C656   1.412       .  A
C655        N662   1.437       .  S
C656        C657   1.406       .  A
C656        H661   1.083       .  S
C657        C658   1.412       .  A
C658        N659   1.439       .  S
N659        H663   1.046       .  S
N659        H664   1.045       .  S
N662        H665   1.046       .  S
N662        H666   1.046       .  S
C667        C668   1.402       .  A
C667        C672   1.396       .  A
C667        H674   1.083       .  S
C668        C669   1.424       .  A
C669        C670   1.404       .  A
C669        N676   1.432       .  S
C670        C671   1.401       .  A
C670        H675   1.084       .  S
C671        C672   1.416       .  A
C672        N673   1.434       .  S
N673        H677   1.045       .  S
N673        H678   1.045       .  S
N676        H679   1.045       .  S
N676        H680   1.042       .  S
C681        C682   1.402       .  A
C681        C686   1.398       .  A
C681        H688   1.084       .  S
C682        C683   1.413       .  A
C683        C684   1.410       .  A
C683        N690   1.432       .  S
C684        C685   1.408       .  A
C684        H689   1.084       .  S
C685        C686   1.413       .  A
C686        N687   1.433       .  S
N687        H691   1.045       .  S
N687        H692   1.046       .  S
N690        H693   1.045       .  S
N690        H694   1.046       .  S
C695        C696   1.404       .  A
C695        C700   1.398       .  A
C695        H702   1.084       .  S
C696        C697   1.416       .  A
C697        C698   1.407       .  A
C697        N704   1.438       .  S
C698        C699   1.401       .  A
C698        H703   1.084       .  S
C699        C700   1.412       .  A
C700        N701   1.432       .  S
N701        H705   1.046       .  S
N701        H706   1.042       .  S
N704        H707   1.046       .  S
N704        H708   1.045       .  S
C709        C710   1.405       .  A
C709        C714   1.404       .  A
C709        H716   1.084       .  S
C710        C711   1.417       .  A
C711        C712   1.399       .  A
C711        N718   1.432       .  S
C712        C713   1.405       .  A
C712        H717   1.084       .  S
C713        C714   1.417       .  A
C714        N715   1.439       .  S
N715        H719   1.046       .  S
N715        H720   1.046       .  S
N718        H721   1.046       .  S
N718        H722   1.045       .  S
C723        C724   1.403       .  A
C723        C728   1.399       .  A
C723        H730   1.084       .  S
C724        C725   1.419       .  A
C725        C726   1.403       .  A
C725        N732   1.432       .  S
C726        C727   1.405       .  A
C726        H731   1.084       .  S
C727        C728   1.412       .  A
C728        N729   1.433       .  S
N729        H733   1.046       .  S
N729        H734   1.045       .  S
N732        H735   1.046       .  S
N732        H736   1.045       .  S
C737        C738   1.402   1_554  A
C737        C742   1.407       .  A
C737        H744   1.084       .  S
C738        C739   1.405       .  A
C739        C740   1.400       .  A
C739        N746   1.432       .  S
C740        C741   1.401       .  A
C740        H745   1.084       .  S
C741        C742   1.418   1_556  A
C742        N743   1.438       .  S
N743        H747   1.046       .  S
N743        H748   1.043       .  S
N746        H749   1.046       .  S
N746        H750   1.045       .  S
C751        C752   1.404       .  A
C751        C756   1.397       .  A
C751        H758   1.084       .  S
C752        C753   1.416       .  A
C753        C754   1.412       .  A
C753        N760   1.437       .  S
C754        C755   1.408       .  A
C754        H759   1.083       .  S
C755        C756   1.419       .  A
C756        N757   1.433       .  S
N757        H761   1.045       .  S
N757        H762   1.046       .  S
N760        H763   1.046       .  S
N760        H764   1.046       .  S
C765        C766   1.407       .  A
C765        C770   1.411       .  A
C765        H772   1.083       .  S
C766        C767   1.414       .  A
C767        C768   1.405       .  A
C767        N774   1.437       .  S
C768        C769   1.404       .  A
C768        H773   1.083       .  S
C769        C770   1.415       .  A
C770        N771   1.437       .  S
N771        H775   1.045       .  S
N771        H776   1.046       .  S
N774        H777   1.046       .  S
N774        H778   1.044   1_554  S
C779        C780   1.404       .  A
C779        C784   1.403       .  A
C779        H786   1.083       .  S
C780        C781   1.415       .  A
C781        C782   1.411       .  A
C781        N788   1.437       .  S
C782        C783   1.407       .  A
C782        H787   1.083       .  S
C783        C784   1.415       .  A
C784        N785   1.438       .  S
N785        H789   1.045       .  S
N785        H790   1.046       .  S
N788        H791   1.046       .  S
N788        H792   1.046       .  S
C793        C794   1.404       .  A
C793        C798   1.409       .  A
C793        H800   1.084       .  S
C794        C795   1.410       .  A
C795        C796   1.405       .  A
C795        N802   1.437       .  S
C796        C797   1.405       .  A
C796        H801   1.083       .  S
C797        C798   1.416       .  A
C798        N799   1.438       .  S
N799        H803   1.046       .  S
N799        H804   1.046       .  S
N802        H805   1.045   1_554  S
N802        H806   1.045       .  S
C807        C808   1.404       .  A
C807        C812   1.407       .  A
C807        H814   1.083       .  S
C808        C809   1.411       .  A
C809        C810   1.402       .  A
C809        N816   1.433       .  S
C810        C811   1.406       .  A
C810        H815   1.084       .  S
C811        C812   1.416       .  A
C812        N813   1.438       .  S
N813        H817   1.046       .  S
N813        H818   1.045       .  S
N816        H819   1.046       .  S
N816        H820   1.045       .  S
C821        C822   1.405       .  A
C821        C826   1.408       .  A
C821        H828   1.084       .  S
C822        C823   1.414       .  A
C823        C824   1.405       .  A
C823        N830   1.438       .  S
C824        C825   1.406       .  A
C824        H829   1.084       .  S
C825        C826   1.412       .  A
C826        N827   1.432       .  S
N827        H831   1.046       .  S
N827        H832   1.046       .  S
N830        H833   1.045       .  S
N830        H834   1.046       .  S
C835        C836   1.404       .  A
C835        C840   1.405       .  A
C835        H842   1.084       .  S
C836        C837   1.416       .  A
C837        C838   1.401       .  A
C837        N844   1.432       .  S
C838        C839   1.405       .  A
C838        H843   1.084       .  S
C839        C840   1.414       .  A
C840        N841   1.438       .  S
N841        H845   1.046       .  S
N841        H846   1.045       .  S
N844        H847   1.046       .  S
N844        H848   1.044       .  S
C849        C850   1.402       .  A
C849        C854   1.407       .  A
C849        H856   1.083       .  S
C850        C851   1.419       .  A
C851        C852   1.403       .  A
C851        N858   1.433       .  S
C852        C853   1.403       .  A
C852        H857   1.084       .  S
C853        C854   1.417       .  A
C854        N855   1.438       .  S
N855        H859   1.046       .  S
N855        H860   1.046       .  S
N858        H861   1.046       .  S
N858        H862   1.042       .  S
C863        C864   1.403       .  A
C863        C868   1.403       .  A
C863        H870   1.084       .  S
C864        C865   1.415       .  A
C865        C866   1.413       .  A
C865        N872   1.438       .  S
C866        C867   1.406       .  A
C866        H871   1.083       .  S
C867        C868   1.414       .  A
C868        N869   1.438       .  S
N869        H873   1.045       .  S
N869        H874   1.046       .  S
N872        H875   1.045       .  S
N872        H876   1.045       .  S
C877        C878   1.406       .  A
C877        C882   1.407       .  A
C877        H884   1.083       .  S
C878        C879   1.416       .  A
C879        C880   1.412       .  A
C879        N886   1.438       .  S
C880        C881   1.406       .  A
C880        H885   1.083       .  S
C881        C882   1.414       .  A
C882        N883   1.438       .  S
N883        H887   1.046       .  S
N883        H888   1.046       .  S
N886        H889   1.046       .  S
N886        H890   1.045       .  S
C891        C892   1.406       .  A
C891        C896   1.406       .  A
C891        H898   1.084       .  S
C892        C893   1.420       .  A
C893        C894   1.399       .  A
C893        N900   1.433       .  S
C894        C895   1.402       .  A
C894        H899   1.084       .  S
C895        C896   1.418       .  A
C896        N897   1.433       .  S
N897        H901   1.043       .  S
N897        H902   1.045       .  S
N900        H903   1.045       .  S
N900        H904   1.045       .  S
C905        C906   1.407       .  A
C905        C910   1.408       .  A
C905        H912   1.084       .  S
C906        C907   1.414       .  A
C907        C908   1.402       .  A
C907        N914   1.438       .  S
C908        C909   1.403       .  A
C908        H913   1.084       .  S
C909        C910   1.412       .  A
C910        N911   1.438       .  S
N911        H915   1.046       .  S
N911        H916   1.046       .  S
N914        H917   1.046       .  S
N914        H918   1.046       .  S
C919        C920   1.407   1_556  A
C919        C924   1.400   1_655  A
C919        H926   1.083       .  S
C920        C921   1.418       .  A
C921        C922   1.404   1_655  A
C921        N928   1.432       .  S
C922        C923   1.411   1_554  A
C922        H927   1.079       .  S
C923        C924   1.427       .  A
C924        N925   1.433       .  S
N925        H929   1.045       .  S
N925        H930   1.041       .  S
N928        H931   1.045       .  S
N928        H932   1.046       .  S
C933        C934   1.402       .  A
C933        C938   1.394   1_655  A
C933        H940   1.085       .  S
C934        C935   1.419   1_554  A
C935        C936   1.409   1_655  A
C935        N942   1.435       .  S
C936        C937   1.408   1_556  A
C936        H941   1.077       .  S
C937        C938   1.431       .  A
C938        N939   1.442       .  S
N939        H943   1.046       .  S
N939        H944   1.036       .  S
N942        H945   1.046       .  S
N942        H946   1.045       .  S
C947        C948   1.404       .  A
C947        C952   1.402       .  A
C947        H954   1.084       .  S
C948        C949   1.413   1_556  A
C949        C950   1.408       .  A
C949        N956   1.431       .  S
C950        C951   1.404   1_554  A
C950        H955   1.084       .  S
C951        C952   1.408       .  A
C952        N953   1.432       .  S
N953        H957   1.045       .  S
N953        H958   1.046       .  S
N956        H959   1.047       .  S
N956        H960   1.042       .  S
C961        C962   1.406       .  A
C961        C966   1.407       .  A
C961        H968   1.084       .  S
C962        C963   1.414       .  A
C963        C964   1.404       .  A
C963        N970   1.432       .  S
C964        C965   1.402       .  A
C964        H969   1.080       .  S
C965        C966   1.412       .  A
C966        N967   1.432       .  S
N967        H971   1.046       .  S
N967        H972   1.045       .  S
N970        H973   1.046       .  S
N970        H974   1.046       .  S
C975        C976   1.404       .  A
C975        C980   1.408       .  A
C975        H982   1.083       .  S
C976        C977   1.409       .  A
C977        C978   1.402       .  A
C977        N984   1.433       .  S
C978        C979   1.400       .  A
C978        H983   1.075       .  S
C979        C980   1.414       .  A
C980        N981   1.438       .  S
N981        H985   1.041       .  S
N981        H986   1.048       .  S
N984        H987   1.046       .  S
N984        H988   1.046       .  S
C989        C990   1.406       .  A
C989        C994   1.410       .  A
C989        H996   1.083       .  S
C990        C991   1.410       .  A
C991        C992   1.398       .  A
C991        N998   1.433       .  S
C992        C993   1.405       .  A
C992        H997   1.084       .  S
C993        C994   1.416       .  A
C994        N995   1.438       .  S
N995        H999   1.046       .  S
N995       H1000   1.046       .  S
N998       H1001   1.046       .  S
N998       H1002   1.046       .  S
C1003      C1004   1.405       .  A
C1003      C1008   1.410       .  A
C1003      H1010   1.084       .  S
C1004      C1005   1.412       .  A
C1005      C1006   1.401       .  A
C1005      N1012   1.439       .  S
C1006      C1007   1.403       .  A
C1006      H1011   1.084       .  S
C1007      C1008   1.413       .  A
C1008      N1009   1.437       .  S
N1009      H1013   1.046       .  S
N1009      H1014   1.046       .  S
N1012      H1015   1.045       .  S
N1012      H1016   1.046       .  S
C1017      C1018   1.405       .  A
C1017      C1022   1.401       .  A
C1017      H1024   1.084       .  S
C1018      C1019   1.415       .  A
C1019      C1020   1.404       .  A
C1019      N1026   1.438       .  S
C1020      C1021   1.398       .  A
C1020      H1025   1.081       .  S
C1021      C1022   1.406       .  A
C1022      N1023   1.432       .  S
N1023      H1027   1.045       .  S
N1023      H1028   1.046       .  S
N1026      H1029   1.045       .  S
N1026      H1030   1.047       .  S
C1031      C1032   1.404       .  A
C1031      C1036   1.397       .  A
C1031      H1038   1.084       .  S
C1032      C1033   1.414       .  A
C1033      C1034   1.413       .  A
C1033      N1040   1.437       .  S
C1034      C1035   1.405       .  A
C1034      H1039   1.084       .  S
C1035      C1036   1.415       .  A
C1036      N1037   1.434       .  S
N1037      H1041   1.046       .  S
N1037      H1042   1.044       .  S
N1040      H1043   1.045       .  S
N1040      H1044   1.046       .  S
C1045      C1046   1.406       .  A
C1045      C1050   1.413       .  A
C1045      H1052   1.083       .  S
C1046      C1047   1.411       .  A
C1047      C1048   1.400       .  A
C1047      N1054   1.433       .  S
C1048      C1049   1.405       .  A
C1048      H1053   1.073       .  S
C1049      C1050   1.420       .  A
C1050      N1051   1.437       .  S
N1051      H1055   1.047       .  S
N1051      H1056   1.044       .  S
N1054      H1057   1.046       .  S
N1054      H1058   1.046       .  S
C1059      C1060   1.405       .  A
C1059      C1064   1.402       .  A
C1059      H1066   1.083       .  S
C1060      C1061   1.414       .  A
C1061      C1062   1.407       .  A
C1061      N1068   1.437       .  S
C1062      C1063   1.404       .  A
C1062      H1067   1.083       .  S
C1063      C1064   1.413       .  A
C1064      N1065   1.439       .  S
N1065      H1069   1.045       .  S
N1065      H1070   1.046       .  S
N1068      H1071   1.046       .  S
N1068      H1072   1.046       .  S
C1073      C1074   1.411   1_566  A
C1073      C1078   1.412       .  A
C1073      H1080   1.076   1_565  S
C1074      C1075   1.429   1_545  A
C1075      C1076   1.400       .  A
C1075      N1082   1.440   1_565  S
C1076      C1077   1.406       .  A
C1076      H1081   1.084       .  S
C1077      C1078   1.420   1_554  A
C1078      N1079   1.434       .  S
N1079      H1083   1.046       .  S
N1079      H1084   1.045       .  S
N1082      H1085   1.037       .  S
N1082      H1086   1.046   1_545  S
C1087      C1088   1.405       .  A
C1087      C1092   1.410       .  A
C1087      H1094   1.083       .  S
C1088      C1089   1.411       .  A
C1089      C1090   1.400       .  A
C1089      N1096   1.432       .  S
C1090      C1091   1.404       .  A
C1090      H1095   1.084       .  S
C1091      C1092   1.412       .  A
C1092      N1093   1.437       .  S
N1093      H1097   1.045       .  S
N1093      H1098   1.046       .  S
N1096      H1099   1.046       .  S
N1096      H1100   1.045       .  S
C1101      C1102   1.408       .  A
C1101      C1106   1.407       .  A
C1101      H1108   1.084       .  S
C1102      C1103   1.410       .  A
C1103      C1104   1.400       .  A
C1103      N1110   1.433       .  S
C1104      C1105   1.402       .  A
C1104      H1109   1.084       .  S
C1105      C1106   1.415       .  A
C1106      N1107   1.432       .  S
N1107      H1111   1.046       .  S
N1107      H1112   1.045       .  S
N1110      H1113   1.045       .  S
N1110      H1114   1.046       .  S
C1115      C1116   1.408       .  A
C1115      C1120   1.399       .  A
C1115      H1122   1.083       .  S
C1116      C1117   1.422       .  A
C1117      C1118   1.401       .  A
C1117      N1124   1.432       .  S
C1118      C1119   1.401       .  A
C1118      H1123   1.084       .  S
C1119      C1120   1.410       .  A
C1120      N1121   1.433       .  S
N1121      H1125   1.044       .  S
N1121      H1126   1.045       .  S
N1124      H1127   1.045       .  S
N1124      H1128   1.045       .  S
C1129      C1130   1.410   1_566  A
C1129      C1134   1.406       .  A
C1129      H1136   1.078       .  S
C1130      C1131   1.415   1_545  A
C1131      C1132   1.396       .  A
C1131      N1138   1.434       .  S
C1132      C1133   1.406       .  A
C1132      H1137   1.084       .  S
C1133      C1134   1.421   1_554  A
C1134      N1135   1.434       .  S
N1135      H1139   1.045       .  S
N1135      H1140   1.044       .  S
N1138      H1141   1.046       .  S
N1138      H1142   1.046       .  S
C1143      C1144   1.399       .  A
C1143      C1148   1.393       .  A
C1143      H1150   1.085       .  S
C1144      C1145   1.414   1_554  A
C1145      C1146   1.404       .  A
C1145      N1152   1.438       .  S
C1146      C1147   1.402   1_556  A
C1146      H1151   1.083       .  S
C1147      C1148   1.415       .  A
C1148      N1149   1.439       .  S
N1149      H1153   1.045       .  S
N1149      H1154   1.043       .  S
N1152      H1155   1.043       .  S
N1152      H1156   1.046       .  S
C1157      C1158   1.406       .  A
C1157      C1162   1.408       .  A
C1157      H1164   1.083       .  S
C1158      C1159   1.411       .  A
C1159      C1160   1.400       .  A
C1159      N1166   1.433       .  S
C1160      C1161   1.405       .  A
C1160      H1165   1.084       .  S
C1161      C1162   1.415       .  A
C1162      N1163   1.438       .  S
N1163      H1167   1.045       .  S
N1163      H1168   1.045       .  S
N1166      H1169   1.046       .  S
N1166      H1170   1.045       .  S
C1171      C1172   1.405       .  A
C1171      C1176   1.400       .  A
C1171      H1178   1.084       .  S
C1172      C1173   1.410       .  A
C1173      C1174   1.406       .  A
C1173      N1180   1.431       .  S
C1174      C1175   1.406       .  A
C1174      H1179   1.083       .  S
C1175      C1176   1.412       .  A
C1176      N1177   1.432       .  S
N1177      H1181   1.046       .  S
N1177      H1182   1.046       .  S
N1180      H1183   1.046       .  S
N1180      H1184   1.046       .  S
C1185      C1186   1.405       .  A
C1185      C1190   1.401       .  A
C1185      H1192   1.084       .  S
C1186      C1187   1.416       .  A
C1187      C1188   1.396       .  A
C1187      N1194   1.433       .  S
C1188      C1189   1.405       .  A
C1188      H1193   1.084       .  S
C1189      C1190   1.419       .  A
C1190      N1191   1.432       .  S
N1191      H1195   1.045       .  S
N1191      H1196   1.045       .  S
N1194      H1197   1.044       .  S
N1194      H1198   1.046       .  S
C1199      C1200   1.405       .  A
C1199      C1204   1.410       .  A
C1199      H1206   1.084       .  S
C1200      C1201   1.414       .  A
C1201      C1202   1.397       .  A
C1201      N1208   1.433       .  S
C1202      C1203   1.406       .  A
C1202      H1207   1.084       .  S
C1203      C1204   1.414       .  A
C1204      N1205   1.437       .  S
N1205      H1209   1.046       .  S
N1205      H1210   1.046       .  S
N1208      H1211   1.046       .  S
N1208      H1212   1.044       .  S
C1213      C1214   1.406       .  A
C1213      C1218   1.403       .  A
C1213      H1220   1.083       .  S
C1214      C1215   1.418       .  A
C1215      C1216   1.406       .  A
C1215      N1222   1.438       .  S
C1216      C1217   1.401       .  A
C1216      H1221   1.084       .  S
C1217      C1218   1.409       .  A
C1218      N1219   1.438       .  S
N1219      H1223   1.045       .  S
N1219      H1224   1.046   1_556  S
N1222      H1225   1.045       .  S
N1222      H1226   1.046       .  S
C1227      C1228   1.405       .  A
C1227      C1232   1.402       .  A
C1227      H1234   1.083       .  S
C1228      C1229   1.417       .  A
C1229      C1230   1.410       .  A
C1229      N1236   1.438       .  S
C1230      C1231   1.405       .  A
C1230      H1235   1.084       .  S
C1231      C1232   1.411       .  A
C1232      N1233   1.438       .  S
N1233      H1237   1.046       .  S
N1233      H1238   1.046       .  S
N1236      H1239   1.045       .  S
N1236      H1240   1.046       .  S
C1241      C1242   1.404       .  A
C1241      C1246   1.396       .  A
C1241      H1248   1.084       .  S
C1242      C1243   1.413       .  A
C1243      C1244   1.406       .  A
C1243      N1250   1.438       .  S
C1244      C1245   1.407       .  A
C1244      H1249   1.083       .  S
C1245      C1246   1.418       .  A
C1246      N1247   1.433       .  S
N1247      H1251   1.044       .  S
N1247      H1252   1.045       .  S
N1250      H1253   1.045       .  S
N1250      H1254   1.046       .  S
C1255      C1256   1.410       .  A
C1255      C1260   1.411       .  A
C1255      H1262   1.078       .  S
C1256      C1257   1.415   1_556  A
C1257      C1258   1.405       .  A
C1257      N1264   1.432       .  S
C1258      C1259   1.410   1_554  A
C1258      H1263   1.082       .  S
C1259      C1260   1.423       .  A
C1260      N1261   1.438       .  S
N1261      H1265   1.045       .  S
N1261      H1266   1.046       .  S
N1264      H1267   1.045       .  S
N1264      H1268   1.046       .  S
C1269      C1270   1.415   1_556  A
C1269      C1274   1.414       .  A
C1269      H1276   1.075       .  S
C1270      C1271   1.431       .  A
C1271      C1272   1.398       .  A
C1271      N1278   1.442       .  S
C1272      C1273   1.406   1_554  A
C1272      H1277   1.085       .  S
C1273      C1274   1.417       .  A
C1274      N1275   1.434       .  S
N1275      H1279   1.045       .  S
N1275      H1280   1.045       .  S
N1278      H1281   1.036       .  S
N1278      H1282   1.046       .  S
C1283      C1284   1.403   1_554  A
C1283      C1288   1.407       .  A
C1283      H1290   1.083       .  S
C1284      C1285   1.409       .  A
C1285      C1286   1.401       .  A
C1285      N1292   1.432       .  S
C1286      C1287   1.403       .  A
C1286      H1291   1.084       .  S
C1287      C1288   1.416   1_556  A
C1288      N1289   1.431       .  S
N1289      H1293   1.044       .  S
N1289      H1294   1.045       .  S
N1292      H1295   1.046       .  S
N1292      H1296   1.045       .  S
C1297      C1298   1.406       .  A
C1297      C1302   1.411       .  A
C1297      H1304   1.083       .  S
C1298      C1299   1.410       .  A
C1299      C1300   1.402       .  A
C1299      N1306   1.433       .  S
C1300      C1301   1.406       .  A
C1300      H1305   1.084       .  S
C1301      C1302   1.416       .  A
C1302      N1303   1.437       .  S
N1303      H1307   1.045       .  S
N1303      H1308   1.046       .  S
N1306      H1309   1.046       .  S
N1306      H1310   1.046       .  S
C1311      C1312   1.404       .  A
C1311      C1316   1.402       .  A
C1311      H1318   1.078       .  S
C1312      C1313   1.418       .  A
C1313      C1314   1.411       .  A
C1313      N1320   1.438       .  S
C1314      C1315   1.406       .  A
C1314      H1319   1.083       .  S
C1315      C1316   1.412       .  A
C1316      N1317   1.433       .  S
N1317      H1321   1.046       .  S
N1317      H1322   1.046       .  S
N1320      H1323   1.046       .  S
N1320      H1324   1.045       .  S
C1325      C1326   1.401       .  A
C1325      C1330   1.402       .  A
C1325      H1332   1.084       .  S
C1326      C1327   1.415       .  A
C1327      C1328   1.404       .  A
C1327      N1334   1.439       .  S
C1328      C1329   1.408       .  A
C1328      H1333   1.084       .  S
C1329      C1330   1.418       .  A
C1330      N1331   1.432       .  S
N1331      H1335   1.044       .  S
N1331      H1336   1.046       .  S
N1334      H1337   1.043       .  S
N1334      H1338   1.045       .  S
C1339      C1340   1.404       .  A
C1339      C1344   1.400       .  A
C1339      H1346   1.084       .  S
C1340      C1341   1.413       .  A
C1341      C1342   1.404       .  A
C1341      N1348   1.438       .  S
C1342      C1343   1.403       .  A
C1342      H1347   1.084       .  S
C1343      C1344   1.411       .  A
C1344      N1345   1.439       .  S
N1345      H1349   1.046       .  S
N1345      H1350   1.046       .  S
N1348      H1351   1.046       .  S
N1348      H1352   1.046       .  S
C1353      C1354   1.406       .  A
C1353      C1358   1.402       .  A
C1353      H1360   1.084       .  S
C1354      C1355   1.416       .  A
C1355      C1356   1.407       .  A
C1355      N1362   1.437       .  S
C1356      C1357   1.403       .  A
C1356      H1361   1.083       .  S
C1357      C1358   1.409       .  A
C1358      N1359   1.433       .  S
N1359      H1363   1.046       .  S
N1359      H1364   1.045       .  S
N1362      H1365   1.045       .  S
N1362      H1366   1.046       .  S
C1367      C1368   1.408       .  A
C1367      C1372   1.414       .  A
C1367      H1374   1.083       .  S
C1368      C1369   1.410       .  A
C1369      C1370   1.399       .  A
C1369      N1376   1.433       .  S
C1370      C1371   1.402       .  A
C1370      H1375   1.084       .  S
C1371      C1372   1.414       .  A
C1372      N1373   1.437       .  S
N1373      H1377   1.045       .  S
N1373      H1378   1.045       .  S
N1376      H1379   1.045       .  S
N1376      H1380   1.046       .  S
C1381      C1382   1.406       .  A
C1381      C1386   1.406       .  A
C1381      H1388   1.084       .  S
C1382      C1383   1.410       .  A
C1383      C1384   1.403       .  A
C1383      N1390   1.432       .  S
C1384      C1385   1.404       .  A
C1384      H1389   1.084       .  S
C1385      C1386   1.409       .  A
C1386      N1387   1.432       .  S
N1387      H1391   1.046       .  S
N1387      H1392   1.045       .  S
N1390      H1393   1.045       .  S
N1390      H1394   1.046       .  S
C1395      C1396   1.407       .  A
C1395      C1400   1.402       .  A
C1395      H1402   1.084       .  S
C1396      C1397   1.416       .  A
C1397      C1398   1.409       .  A
C1397      N1404   1.438       .  S
C1398      C1399   1.402       .  A
C1398      H1403   1.079       .  S
C1399      C1400   1.413       .  A
C1400      N1401   1.433       .  S
N1401      H1405   1.045       .  S
N1401      H1406   1.044       .  S
N1404      H1407   1.045       .  S
N1404      H1408   1.046       .  S
C1409      C1410   1.405       .  A
C1409      C1414   1.404       .  A
C1409      H1416   1.084       .  S
C1410      C1411   1.412       .  A
C1411      C1412   1.410       .  A
C1411      N1418   1.431       .  S
C1412      C1413   1.405       .  A
C1412      H1417   1.084       .  S
C1413      C1414   1.414       .  A
C1414      N1415   1.439       .  S
N1415      H1419   1.046       .  S
N1415      H1420   1.046       .  S
N1418      H1421   1.046       .  S
N1418      H1422   1.045       .  S
C1423      C1424   1.406       .  A
C1423      C1428   1.403       .  A
C1423      H1430   1.084       .  S
C1424      C1425   1.420       .  A
C1425      C1426   1.401       .  A
C1425      N1432   1.432       .  S
C1426      C1427   1.402       .  A
C1426      H1431   1.083       .  S
C1427      C1428   1.418       .  A
C1428      N1429   1.432       .  S
N1429      H1433   1.043       .  S
N1429      H1434   1.043       .  S
N1432      H1435   1.045       .  S
N1432      H1436   1.045       .  S
C1437      C1438   1.406       .  A
C1437      C1442   1.407       .  A
C1437      H1444   1.083       .  S
C1438      C1439   1.411       .  A
C1439      C1440   1.396       .  A
C1439      N1446   1.433       .  S
C1440      C1441   1.404       .  A
C1440      H1445   1.084       .  S
C1441      C1442   1.415       .  A
C1442      N1443   1.438       .  S
N1443      H1447   1.046       .  S
N1443      H1448   1.046       .  S
N1446      H1449   1.045       .  S
N1446      H1450   1.046       .  S
C1451      C1452   1.405       .  A
C1451      C1456   1.408       .  A
C1451      H1458   1.083       .  S
C1452      C1453   1.415       .  A
C1453      C1454   1.407       .  A
C1453      N1460   1.438       .  S
C1454      C1455   1.405       .  A
C1454      H1459   1.084       .  S
C1455      C1456   1.416       .  A
C1456      N1457   1.438       .  S
N1457      H1461   1.046       .  S
N1457      H1462   1.046       .  S
N1460      H1463   1.046       .  S
N1460      H1464   1.046       .  S
