geometry optimzed in LAMMPS
_audit_creation_date              2020-11-30 
_audit_creation_method            'lammps2cif' 
_symmetry_space_group_name_H-M    'P1' 
_symmetry_Int_Tables_number       1 
_symmetry_cell_setting            triclinic 
loop_ 
_symmetry_equiv_pos_as_xyz 
  x,y,z 
_cell_length_a                    36.09512177 
_cell_length_b                    36.10062746199272 
_cell_length_c                    46.42829410800024 
_cell_angle_alpha                 90.08568859973197 
_cell_angle_beta                  90.41941005746017 
_cell_angle_gamma                 90.39336236365456 
loop_ 
_atom_site_label 
_atom_site_type_symbol 
_atom_site_fract_x 
_atom_site_fract_y 
_atom_site_fract_z 
_atom_site_charge 
O1          O  0.29521462  0.86565797  0.03147207    -0.57200
C2          C  0.28699742  0.87255809  0.44682532     0.75400
O3          O  0.18092307  0.86254529  0.49640218    -0.58300
C4          C  0.28197957  0.87773234  0.05478544     0.75400
C5          C  0.24051353  0.96189124  0.49867504     0.77800
Cd6        Cd  0.24367251  0.88408567  0.99939041     1.37500
O7          O  0.29741548  0.85821601  0.47032478    -0.57200
O8          O  0.26798157  0.94551372  0.99579224    -0.56000
C9          C  0.18549779  0.82731346  0.99789861     0.77800
O10         O  0.20823967  0.94385749  0.99783136    -0.58400
O11         O  0.25789893  0.89186120  0.44760783    -0.56800
O12         O  0.25037850  0.89254447  0.05307221    -0.56800
O13         O  0.22156253  0.82028210  0.50305435    -0.56000
O14         O  0.29928637  0.10225242  0.02734230    -0.57200
C15         C  0.28404208  0.08931473  0.44120905     0.75400
O16         O  0.21005293  0.02346269  0.99432624    -0.58300
C17         C  0.28573988  0.09000455  0.05055205     0.75400
C18         C  0.18786071  0.13503788  0.49661079     0.77800
Cd19       Cd  0.24773352  0.08206250  0.99489439     1.37500
O20         O  0.29868322  0.09937197  0.46481734    -0.57200
O21         O  0.22332939  0.14552295  0.99274734    -0.56000
C22         C  0.23880027  0.00342652  0.99517582     0.77800
O23         O  0.18142498  0.10331612  0.99646467    -0.58400
O24         O  0.25150384  0.07616082  0.44251002    -0.56800
O25         O  0.25436550  0.07442229  0.04847145    -0.56800
O26         O  0.26998145  0.01940688  0.49255182    -0.56000
O27         O  0.87741374  0.68962234  0.46457348    -0.57200
C28         C  0.89479191  0.69921855  0.05028089     0.75400
O29         O  0.96430146  0.77489776  0.99215030    -0.58300
C30         C  0.89334232  0.69826919  0.44135367     0.75400
C31         C  0.85024970  0.79961858  0.99936332     0.77800
Cd32       Cd  0.90444813  0.73975978  0.99687843     1.37500
O33         O  0.88093309  0.68804979  0.02666844    -0.57200
O34         O  0.84507889  0.76627725  0.50349515    -0.56000
C35         C  0.98504934  0.74449615  0.49496999     0.77800
O36         O  0.88655718  0.80499592  0.48955379    -0.58400
O37         O  0.91236850  0.72961419  0.04959383    -0.56800
O38         O  0.91395809  0.72672378  0.44217426    -0.56800
O39         O  0.96579081  0.71687495  0.00345979    -0.56000
O40         O  0.12726274  0.68674048  0.46658294    -0.57200
C41         C  0.11132806  0.69859253  0.05217744     0.75400
O42         O  0.12275006  0.80407104  0.99857630    -0.58300
C43         C  0.11434032  0.69831021  0.44287833     0.75400
C44         C  0.02385511  0.74576184  0.99793835     0.77800
Cd45       Cd  0.10269956  0.73709348  0.99728876     1.37500
O46         O  0.11810539  0.68330631  0.02826153    -0.57200
O47         O  0.04271395  0.71492314  0.49028827    -0.56000
C48         C  0.15905107  0.79919938  0.49859192     0.77800
O49         O  0.04398782  0.77378456  0.99244873    -0.58400
O50         O  0.10112114  0.73202651  0.05112960    -0.56800
O51         O  0.09835374  0.72936770  0.44351596    -0.56800
O52         O  0.16614915  0.76390096  0.99588998    -0.56000
O53         O  0.71085406  0.86731664  0.47135973    -0.57200
C54         C  0.72159190  0.87442429  0.05878725     0.75400
O55         O  0.82884430  0.86233909  0.00555117    -0.58300
C56         C  0.72523763  0.87370206  0.44707830     0.75400
C57         C  0.76945624  0.96184026  0.00244316     0.77800
Cd58       Cd  0.76196410  0.88283735  0.00474173     1.37500
O59         O  0.70997862  0.86172166  0.03500220    -0.57200
O60         O  0.74642577  0.94467273  0.48982914    -0.56000
C61         C  0.82147809  0.82835015  0.00162191     0.77800
O62         O  0.79810537  0.94240418  0.00677894    -0.58400
O63         O  0.75277858  0.89062278  0.05835444    -0.56800
O64         O  0.75886711  0.88380523  0.44723890    -0.56800
O65         O  0.78754559  0.81991130  0.99976533    -0.56000
O66         O  0.70712027  0.09126799  0.47111533    -0.57200
C67         C  0.72254541  0.09036547  0.05673540     0.75400
O68         O  0.79835644  0.02192503  0.00756987    -0.58300
C69         C  0.72270071  0.08870270  0.44687302     0.75400
C70         C  0.82356929  0.13699455  0.00388388     0.77800
Cd71       Cd  0.76331331  0.08156208  0.00320894     1.37500
O72         O  0.71443654  0.10783814  0.03398655    -0.57200
O73         O  0.78944781  0.14374222  0.50672852    -0.56000
C74         C  0.77445387  0.00250398  0.49852547     0.77800
O75         O  0.82992650  0.10186374  0.49826243    -0.58400
O76         O  0.74983866  0.06869300  0.05523702    -0.56800
O77         O  0.75744937  0.08413181  0.44733683    -0.56800
O78         O  0.74013725  0.01946746  0.99673213    -0.56000
O79         O  0.90108588  0.61786129  0.31880749    -0.57200
C80         C  0.88736340  0.67630516  0.41497248     0.75400
O81         O  0.80078304  0.63722400  0.37307001    -0.58300
C82         C  0.90151003  0.64970278  0.30741612     0.75400
C83         C  0.87111488  0.55624540  0.36748467     0.77800
Cd84       Cd  0.86763529  0.63564817  0.36287363     1.37500
O85         O  0.90605785  0.68081829  0.39223836    -0.57200
O86         O  0.89932184  0.57612462  0.37341231    -0.56000
C87         C  0.79347339  0.66054319  0.35361491     0.77800
O88         O  0.84209931  0.57346147  0.36019099    -0.58400
O89         O  0.86251163  0.65166672  0.41400403    -0.56800
O90         O  0.88944500  0.67578894  0.32293474    -0.56800
O91         O  0.81988593  0.66978548  0.33741179    -0.56000
O92         O  0.71826000  0.87337679  0.39558770    -0.57200
C93         C  0.68061736  0.88213884  0.31410826     0.75400
O94         O  0.68019517  0.78385045  0.38514485    -0.58300
C95         C  0.70416730  0.86816075  0.42015867     0.75400
C96         C  0.58536766  0.84889827  0.37174629     0.77800
Cd97       Cd  0.66456864  0.84627283  0.36820985     1.37500
O98         O  0.70390392  0.86178770  0.32684374    -0.57200
O99         O  0.60543809  0.87696499  0.37729813    -0.56000
C100        C  0.68566597  0.77053838  0.36037205     0.77800
O101        O  0.60234173  0.81955094  0.36506055    -0.58400
O102        O  0.65216116  0.89035232  0.32850793    -0.56800
O103        O  0.67112722  0.85650557  0.42048240    -0.56800
O104        O  0.67872817  0.79159629  0.33935171    -0.56000
O105        O  0.70273668  0.09806178  0.32687715    -0.57200
C106        C  0.70147187  0.09191724  0.41971344     0.75400
O107        O  0.67138659  0.17275777  0.38431457    -0.58300
C108        C  0.68254219  0.07490951  0.31361626     0.75400
C109        C  0.58128529  0.10572815  0.36657801     0.77800
Cd110      Cd  0.66096338  0.10930451  0.36700655     1.37500
O111        O  0.71646940  0.08886685  0.39528836    -0.57200
O112        O  0.60012883  0.07818769  0.37499134    -0.56000
C113        C  0.68031841  0.18576992  0.36005770     0.77800
O114        O  0.59955997  0.13406723  0.35902074    -0.58400
O115        O  0.66721293  0.09887969  0.41963297    -0.56800
O116        O  0.65483982  0.06276269  0.32744657    -0.56800
O117        O  0.67641878  0.16421780  0.33878708    -0.56000
O118        O  0.89007752  0.26262454  0.39654431    -0.57200
C119        C  0.90953328  0.30192404  0.31499664     0.75400
O120        O  0.80201387  0.31112841  0.37960442    -0.58300
C121        C  0.88861763  0.27938324  0.42042570     0.75400
C122        C  0.86839658  0.39545493  0.36791094     0.77800
Cd123      Cd  0.86790578  0.31613634  0.36692710     1.37500
O124        O  0.88796647  0.27806194  0.32586786    -0.57200
O125        O  0.89708413  0.37705840  0.37433257    -0.56000
C126        C  0.79207254  0.29391359  0.35707276     0.77800
O127        O  0.83962159  0.37679127  0.36164771    -0.58400
O128        O  0.91532966  0.33069359  0.33002095    -0.56800
O129        O  0.88035003  0.31323856  0.41938606    -0.56800
O130        O  0.81671792  0.28948520  0.33821918    -0.56000
O131        O  0.10385163  0.68631339  0.39237264    -0.57200
C132        C  0.09817985  0.65299461  0.30899858     0.75400
O133        O  0.20177453  0.64487102  0.37500701    -0.58300
C134        C  0.11850362  0.67681557  0.41607971     0.75400
C135        C  0.13127318  0.55746814  0.36536022     0.77800
Cd136      Cd  0.13540424  0.63702381  0.36306231     1.37500
O137        O  0.11429101  0.67773240  0.32396592    -0.57200
O138        O  0.10292999  0.57671677  0.37105769    -0.56000
C139        C  0.21027875  0.66125729  0.35194943     0.77800
O140        O  0.16057399  0.57543726  0.35989019    -0.58400
O141        O  0.09490887  0.62158601  0.32087745    -0.56800
O142        O  0.13766435  0.64776135  0.41559803    -0.56800
O143        O  0.18482692  0.66356318  0.33325334    -0.56000
O144        O  0.30082349  0.88326080  0.39692556    -0.57200
C145        C  0.33338789  0.88474737  0.31330415     0.75400
O146        O  0.40664320  0.82081353  0.36327328    -0.58300
C147        C  0.30736435  0.86590240  0.42004757     0.75400
C148        C  0.31858855  0.77293827  0.35332519     0.77800
Cd149      Cd  0.34530006  0.84633793  0.36718755     1.37500
O150        O  0.30660795  0.87303345  0.32826757    -0.57200
O151        O  0.30832692  0.80154509  0.33998732    -0.56000
C152        C  0.42463562  0.84859316  0.37258204     0.77800
O153        O  0.34285580  0.77779538  0.37276185    -0.58400
O154        O  0.36507135  0.88250329  0.32501519    -0.56800
O155        O  0.33223960  0.84161888  0.41897385    -0.56800
O156        O  0.40558175  0.87651184  0.37980940    -0.56000
O157        O  0.11294184  0.27912813  0.31934652    -0.57200
C158        C  0.11875264  0.27937800  0.41593963     0.75400
O159        O  0.19952786  0.31865993  0.36224806    -0.58300
C160        C  0.09191638  0.30264123  0.30755945     0.75400
C161        C  0.12850150  0.39634741  0.36457896     0.77800
Cd162      Cd  0.13138278  0.31677341  0.36114628     1.37500
O163        O  0.09627103  0.27538976  0.39505306    -0.57200
O164        O  0.10189577  0.37638545  0.37341065    -0.56000
C165        C  0.20319403  0.29072496  0.34602065     0.77800
O166        O  0.15615301  0.37914816  0.35472248    -0.58400
O167        O  0.14566408  0.30109800  0.41183668    -0.56800
O168        O  0.08520759  0.33126874  0.32237627    -0.56800
O169        O  0.17382991  0.27682969  0.33556812    -0.56000
O170        O  0.30171257  0.09195153  0.32015640    -0.57200
C171        C  0.30379535  0.09393058  0.41379687     0.75400
O172        O  0.40321111  0.14088010  0.35775214    -0.58300
C173        C  0.32569444  0.07183097  0.30808153     0.75400
C174        C  0.31797576  0.18732127  0.34924868     0.77800
Cd175      Cd  0.34151379  0.11292037  0.36057978     1.37500
O176        O  0.28914591  0.08646304  0.38960156    -0.57200
O177        O  0.32320087  0.16420146  0.32927231    -0.56000
C178        C  0.42073545  0.11162652  0.36385944     0.77800
O179        O  0.32700339  0.17708335  0.37432280    -0.58400
O180        O  0.33638566  0.10675759  0.41329795    -0.56800
O181        O  0.35521664  0.06665122  0.32234580    -0.56800
O182        O  0.40123568  0.08311314  0.36904796    -0.56000
O183        O  0.89041191  0.27666863  0.03407225    -0.57200
C184        C  0.89505760  0.26059029  0.44808358     0.75400
O185        O  0.96912136  0.19079435  0.99979057    -0.58300
C186        C  0.90236656  0.26315207  0.05746600     0.75400
C187        C  0.85209959  0.16463716  0.50375413     0.77800
Cd188      Cd  0.90910494  0.22531276  0.00231625     1.37500
O189        O  0.89062039  0.27720208  0.47180842    -0.57200
O190        O  0.84485289  0.19999533  0.00386133    -0.56000
C191        C  0.98841763  0.22030055  0.99969183     0.77800
O192        O  0.88715557  0.15854986  0.00287983    -0.58400
O193        O  0.90442887  0.22694315  0.44951294    -0.56800
O194        O  0.91758155  0.23173565  0.05581503    -0.56800
O195        O  0.96861276  0.24677947  0.49534776    -0.56000
O196        O  0.13254721  0.26938933  0.46585763    -0.57200
C197        C  0.11605444  0.26399233  0.05320912     0.75400
O198        O  0.04822042  0.19203077  0.99442826    -0.58300
C199        C  0.11424741  0.25997721  0.44360683     0.75400
C200        C  0.16116104  0.16681971  0.99566740     0.77800
Cd201      Cd  0.10787051  0.22728939  0.99787814     1.37500
O202        O  0.12769783  0.27838612  0.03011679    -0.57200
O203        O  0.16749247  0.19721497  0.50104570    -0.56000
C204        C  0.02602259  0.21662735  0.49923884     0.77800
O205        O  0.12480742  0.15629418  0.49397840    -0.58400
O206        O  0.10209175  0.23187779  0.05116031    -0.56800
O207        O  0.09213853  0.23293092  0.44640501    -0.56800
O208        O  0.04621240  0.25098214  0.00236421    -0.56000
O209        O  0.88811358  0.67829805  0.17249823    -0.57200
C210        C  0.88974872  0.67823619  0.07713339     0.75400
O211        O  0.84715944  0.57699715  0.13598598    -0.58300
C212        C  0.90867414  0.65453834  0.18458245     0.75400
C213        C  0.79728803  0.66463412  0.14026369     0.77800
Cd214      Cd  0.87189429  0.63942881  0.13013863     1.37500
O215        O  0.90589719  0.68685738  0.10056044    -0.57200
O216        O  0.82240750  0.66618072  0.15931395    -0.56000
C217        C  0.87534705  0.55953613  0.12751356     0.77800
O218        O  0.80577514  0.64838564  0.11712879    -0.58400
O219        O  0.86811912  0.65072264  0.07798210    -0.56800
O220        O  0.91697788  0.62670214  0.16935798    -0.56800
O221        O  0.90270149  0.57923952  0.11975072    -0.56000
O222        O  0.69973381  0.86860593  0.17764981    -0.57200
C223        C  0.70007371  0.86912208  0.08536454     0.75400
O224        O  0.66527981  0.78191722  0.12560414    -0.58300
C225        C  0.67478225  0.88544983  0.19138421     0.75400
C226        C  0.58067898  0.85209883  0.13532076     0.77800
Cd227      Cd  0.66033570  0.84851434  0.13742304     1.37500
O228        O  0.71009078  0.88204637  0.10957320    -0.57200
O229        O  0.60072790  0.87921345  0.12749271    -0.56000
C230        C  0.68632339  0.77425443  0.14663584     0.77800
O231        O  0.59774022  0.82334776  0.14348705    -0.58400
O232        O  0.67060677  0.85014228  0.08510290    -0.56800
O233        O  0.64420223  0.88945470  0.17829346    -0.56800
O234        O  0.69214186  0.80004411  0.16450996    -0.56000
O235        O  0.70725298  0.07754129  0.10623194    -0.57200
C236        C  0.68002737  0.07942501  0.19077530     0.75400
O237        O  0.66763080  0.18174767  0.12656237    -0.58300
C238        C  0.70177794  0.09620946  0.08353189     0.75400
C239        C  0.58358258  0.11016951  0.13295560     0.77800
Cd240      Cd  0.66311662  0.11468921  0.13644133     1.37500
O241        O  0.70404866  0.09841522  0.17745227    -0.57200
O242        O  0.60352386  0.08255221  0.12677805    -0.56000
C243        C  0.68768652  0.18864302  0.14840332     0.77800
O244        O  0.60072574  0.13935777  0.14049800    -0.58400
O245        O  0.64995034  0.07335353  0.17730052    -0.56800
O246        O  0.67768795  0.12120397  0.08506953    -0.56800
O247        O  0.69348602  0.16194116  0.16529443    -0.56000
O248        O  0.91514647  0.33864992  0.18098149    -0.57200
C249        C  0.89709760  0.28267565  0.08504739     0.75400
O250        O  0.80903013  0.31665437  0.12708539    -0.58300
C251        C  0.91444258  0.30746038  0.19338826     0.75400
C252        C  0.87936486  0.39897519  0.13363743     0.77800
Cd253      Cd  0.87643495  0.31973847  0.13857946     1.37500
O254        O  0.90726549  0.26965265  0.10911680    -0.57200
O255        O  0.90701408  0.37919365  0.12715601    -0.56000
C256        C  0.80094364  0.29523223  0.14760265     0.77800
O257        O  0.85094258  0.38180540  0.14258937    -0.58400
O258        O  0.88058167  0.31327484  0.08583569    -0.56800
O259        O  0.89998094  0.28124716  0.17894627    -0.56800
O260        O  0.82721993  0.28710949  0.16446752    -0.56000
O261        O  0.12230218  0.67684734  0.17617672    -0.57200
C262        C  0.11622881  0.67860116  0.07963733     0.75400
O263        O  0.19900212  0.65228523  0.11939365    -0.58300
C264        C  0.09681918  0.65652145  0.18622549     0.75400
C265        C  0.13292024  0.56054868  0.13213281     0.77800
Cd266      Cd  0.13466780  0.64019658  0.13313985     1.37500
O267        O  0.10943733  0.69309000  0.10386771    -0.57200
O268        O  0.10458237  0.57948254  0.12587745    -0.56000
C269        C  0.20932832  0.66456861  0.14369150     0.77800
O270        O  0.16206007  0.57869227  0.13829568    -0.58400
O271        O  0.12846069  0.64595549  0.08017147    -0.56800
O272        O  0.08441115  0.63163799  0.16938887    -0.56800
O273        O  0.18598618  0.66208692  0.16373973    -0.56000
O274        O  0.30460268  0.87382018  0.17843208    -0.57200
C275        C  0.30212545  0.87314684  0.08230892     0.75400
O276        O  0.40067041  0.82603859  0.14288971    -0.58300
C277        C  0.33083046  0.89138982  0.19065033     0.75400
C278        C  0.31460035  0.77951649  0.14658712     0.77800
Cd279      Cd  0.34014894  0.85388301  0.13601555     1.37500
O280        O  0.29066188  0.88570648  0.10609229    -0.57200
O281        O  0.30487268  0.80669956  0.16182063    -0.56000
C282        C  0.41968900  0.85348419  0.13443952     0.77800
O283        O  0.33770485  0.78637747  0.12693737    -0.58400
O284        O  0.33183388  0.85506330  0.08333608    -0.56800
O285        O  0.35956791  0.89637537  0.17564275    -0.56800
O286        O  0.40158676  0.88142940  0.12576832    -0.56000
O287        O  0.10824522  0.26964433  0.10440406    -0.57200
C288        C  0.09268648  0.30067843  0.18598228     0.75400
O289        O  0.19842248  0.30398599  0.12245277    -0.58300
C290        C  0.11941768  0.28349414  0.08094959     0.75400
C291        C  0.13470973  0.39990983  0.13279352     0.77800
Cd292      Cd  0.13515271  0.32016296  0.13542874     1.37500
O293        O  0.11639208  0.27930423  0.17503240    -0.57200
O294        O  0.10636315  0.38090234  0.12585403    -0.56000
C295        C  0.20965075  0.29611120  0.14750643     0.77800
O296        O  0.16279112  0.38185132  0.14095900    -0.56000
O297        O  0.08453665  0.32901667  0.17121619    -0.56800
O298        O  0.13450099  0.31504286  0.08255712    -0.56800
O299        O  0.18713435  0.30200377  0.16771182    -0.56000
O300        O  0.30290589  0.09033479  0.17271002    -0.57200
C301        C  0.30527887  0.09465786  0.07841317     0.75400
O302        O  0.33544211  0.17852881  0.12414440    -0.58300
C303        C  0.32612457  0.07029910  0.18584915     0.75400
C304        C  0.42271206  0.10982615  0.13052241     0.77800
Cd305      Cd  0.34288500  0.11088847  0.13320693     1.37500
O306        O  0.29427525  0.07989926  0.10159721    -0.57200
O307        O  0.40359858  0.08289866  0.12081252    -0.56000
C308        C  0.31753161  0.18485135  0.14692228     0.77800
O309        O  0.40469902  0.13630825  0.14134465    -0.58400
O310        O  0.33404591  0.11449217  0.08039425    -0.56800
O311        O  0.35600856  0.06426620  0.17247397    -0.56800
O312        O  0.31391727  0.15775534  0.16378633    -0.56000
C313        C  0.29866096  0.24765085  0.13044332    -0.25700
C314        C  0.29875508  0.22065887  0.15221171    -0.13800
C315        C  0.27583928  0.22576371  0.17643411     0.36900
C316        C  0.24932420  0.25396578  0.17620771    -0.25100
C317        C  0.24542040  0.27723710  0.15222873    -0.14400
C318        C  0.27238094  0.27620576  0.13037836     0.37900
N319        N  0.27160918  0.30283956  0.10739907    -0.88600
H320        H  0.31725546  0.24499211  0.11235870     0.19100
H321        H  0.22964454  0.25534730  0.19369172     0.19100
N322        N  0.27776352  0.20109942  0.20054271    -0.87700
H323        H  0.29302020  0.29793720  0.09286274     0.36400
H324        H  0.27679000  0.32888874  0.11650603     0.41500
H325        H  0.25179619  0.18853427  0.20303023     0.41100
H326        H  0.28337515  0.21685665  0.21899911     0.36000
C327        C  0.10075023  0.45970472  0.13102123    -0.25700
C328        C  0.13475519  0.44101443  0.13183955    -0.13800
C329        C  0.16805817  0.46188107  0.13259024     0.36900
C330        C  0.16649216  0.50072428  0.13274254    -0.25100
C331        C  0.13252009  0.51943928  0.13212838    -0.14400
C332        C  0.09919252  0.49861331  0.13162647     0.37900
N333        N  0.06390027  0.51682662  0.13236619    -0.88600
H334        H  0.07514102  0.44386999  0.13073812     0.19100
H335        H  0.19214245  0.51648912  0.13309439     0.19100
N336        N  0.20340785  0.44373530  0.13302128    -0.87700
H337        H  0.06182290  0.52995808  0.15237784     0.36400
H338        H  0.04222494  0.49748814  0.13135163     0.41500
H339        H  0.22502324  0.46310489  0.13440348     0.41100
H340        H  0.20638737  0.43014387  0.11327895     0.36000
C341        C  0.25038687  0.70495011  0.17331836    -0.25700
C342        C  0.24486077  0.68464055  0.14777647    -0.13800
C343        C  0.26976129  0.68967942  0.12473572     0.36900
C344        C  0.29571607  0.71879683  0.12605698    -0.25100
C345        C  0.29712797  0.74269382  0.14990109    -0.14400
C346        C  0.27641046  0.73384666  0.17457478     0.37900
N347        N  0.28053200  0.75514474  0.20049010    -0.88600
H348        H  0.23249086  0.70050909  0.19165200     0.19100
H349        H  0.31259346  0.72469394  0.10739269     0.19100
N350        N  0.26696535  0.66699329  0.09933149    -0.87700
H351        H  0.28798980  0.73711376  0.21712380     0.36400
H352        H  0.25482026  0.76654143  0.20552325     0.41500
H353        H  0.27323156  0.63985068  0.10538221     0.41100
H354        H  0.28680307  0.67489667  0.08419362     0.36000
C355        C  0.52304022  0.14196897  0.13673907    -0.25700
C356        C  0.54246290  0.10912162  0.13146608    -0.13800
C357        C  0.52218511  0.07650544  0.12499386     0.36900
C358        C  0.48323120  0.07747337  0.12387181    -0.25100
C359        C  0.46387859  0.11026621  0.12978870    -0.14400
C360        C  0.48428848  0.14287503  0.13595602     0.37900
N361        N  0.46592124  0.17723156  0.14132053    -0.88600
H362        H  0.53795260  0.16739957  0.14160067     0.19100
H363        H  0.46810152  0.05215330  0.11907562     0.19100
N364        N  0.54081096  0.04217774  0.12011477    -0.87700
H365        H  0.47523350  0.19662897  0.12626840     0.36400
H366        H  0.47374702  0.18652823  0.16183474     0.41500
H367        H  0.53346916  0.03260411  0.09957651     0.41100
H368        H  0.53120118  0.02292570  0.13516905     0.36000
C369        C  0.71055040  0.24797031  0.12843533    -0.25700
C370        C  0.70691478  0.22452793  0.15235174    -0.13800
C371        C  0.72825348  0.23175558  0.17739668     0.36900
C372        C  0.75636275  0.25869287  0.17639735    -0.25100
C373        C  0.76395972  0.27787927  0.15080947    -0.14400
C374        C  0.73927377  0.27421684  0.12725865     0.37900
N375        N  0.74515547  0.29447537  0.10117025    -0.88600
H376        H  0.69373724  0.24331956  0.10931687     0.19100
H377        H  0.77441467  0.26240573  0.19494488     0.19100
N378        N  0.72333560  0.20982273  0.20294769    -0.87700
H379        H  0.72108020  0.30934237  0.09655714     0.36400
H380        H  0.74914423  0.27543416  0.08449868     0.41500
H381        H  0.69673944  0.21497475  0.21069511     0.41100
H382        H  0.74193010  0.21808773  0.21913457     0.36000
C383        C  0.48075226  0.88260055  0.12274738    -0.25700
C384        C  0.46086291  0.85298734  0.13491116    -0.13800
C385        C  0.48075104  0.82384322  0.14800522     0.36900
C386        C  0.51958330  0.82410355  0.14759904    -0.25100
C387        C  0.53951352  0.85347634  0.13515318    -0.14400
C388        C  0.51968413  0.88339948  0.12316339     0.37900
N389        N  0.53877765  0.91484054  0.11154325    -0.88600
H390        H  0.46607923  0.90555307  0.11303468     0.19100
H391        H  0.53417030  0.80125807  0.15754827     0.19100
N392        N  0.46182633  0.79424168  0.16238721    -0.87700
H393        H  0.53021958  0.93838469  0.12276198     0.36400
H394        H  0.53073574  0.91780897  0.08999697     0.41500
H395        H  0.47057842  0.79403632  0.18390739     0.41100
H396        H  0.46975082  0.76924254  0.15293368     0.36000
C397        C  0.84543809  0.45845251  0.13173837    -0.25700
C398        C  0.87951354  0.43999200  0.13085768    -0.13800
C399        C  0.91240892  0.46098104  0.12727483     0.36900
C400        C  0.91038024  0.49991543  0.12557945    -0.25100
C401        C  0.87624534  0.51834165  0.12725492    -0.14400
C402        C  0.84333945  0.49713215  0.12960753     0.37900
N403        N  0.80775175  0.51481403  0.12960379    -0.88600
H404        H  0.82002537  0.44256098  0.13379258     0.19100
H405        H  0.93569782  0.51597195  0.12358601     0.19100
N406        N  0.94773370  0.44294505  0.12568985    -0.87700
H407        H  0.78643894  0.49532291  0.13198460     0.36400
H408        H  0.80393784  0.52686269  0.10933757     0.41500
H409        H  0.95321291  0.43129868  0.14586996     0.41100
H410        H  0.96888186  0.46224241  0.12193497     0.36000
C411        C  0.75531985  0.70218212  0.17048218    -0.25700
C412        C  0.76150598  0.68389896  0.14423518    -0.13800
C413        C  0.73673354  0.68996035  0.12105185     0.36900
C414        C  0.70892980  0.71670560  0.12363586    -0.25100
C415        C  0.70629823  0.73864588  0.14853026    -0.14400
C416        C  0.72851854  0.72990290  0.17268373     0.37900
N417        N  0.72571268  0.75060573  0.19892695    -0.88600
H418        H  0.77343036  0.69729617  0.18878710     0.19100
H419        H  0.69175213  0.72265482  0.10499042     0.19100
N420        N  0.74128071  0.67120346  0.09411582    -0.87700
H421        H  0.75148460  0.76291521  0.20322444     0.36400
H422        H  0.71993432  0.73206625  0.21560495     0.41500
H423        H  0.74573158  0.69115195  0.07817652     0.41100
H424        H  0.71653420  0.65727106  0.08921758     0.36000
C425        C  0.28967852  0.07101960  0.26216521    -0.25700
C426        C  0.32093612  0.05910430  0.27764634    -0.13800
C427        C  0.34968410  0.04160520  0.26235734     0.36900
C428        C  0.34931889  0.04183922  0.23196349    -0.25100
C429        C  0.32029852  0.05867759  0.21645169    -0.14400
C430        C  0.28881271  0.07063558  0.23186650     0.37900
N431        N  0.25691948  0.08464806  0.21682087    -0.88600
H432        H  0.26673075  0.08319716  0.27363360     0.19100
H433        H  0.37308771  0.03112333  0.22061245     0.19100
N434        N  0.38012193  0.02513182  0.27746941    -0.87700
H435        H  0.23666506  0.09328041  0.23130273     0.36400
H436        H  0.24533802  0.06264773  0.20508937     0.41500
H437        H  0.40457709  0.03805442  0.27074213     0.41100
H438        H  0.38130991  0.99722240  0.27151432     0.36000
C439        C  0.06399517  0.32574047  0.23064320    -0.25700
C440        C  0.07939752  0.29540567  0.21603704    -0.13800
C441        C  0.08967460  0.26385381  0.23217065     0.36900
C442        C  0.08946893  0.26550684  0.26242787    -0.25100
C443        C  0.07950057  0.29801844  0.27705354    -0.14400
C444        C  0.06439259  0.32753277  0.26093737     0.37900
N445        N  0.05201414  0.36051052  0.27497863    -0.88600
H446        H  0.05503795  0.34984210  0.21865065     0.19100
H447        H  0.09998090  0.24216401  0.27455375     0.19100
N448        N  0.10280273  0.23115577  0.21789772    -0.87700
H449        H  0.02432921  0.36471455  0.26916002     0.36400
H450        H  0.06757183  0.38285701  0.26721755     0.41500
H451        H  0.08071642  0.22022492  0.20584518     0.41100
H452        H  0.11026115  0.21087993  0.23287717     0.36000
C453        C  0.26572729  0.27504647  0.36399115    -0.25700
C454        C  0.23927073  0.27281709  0.34174903    -0.13800
C455        C  0.24500732  0.24829481  0.31860241     0.36900
C456        C  0.27486873  0.22387657  0.31957073    -0.25100
C457        C  0.29795408  0.22219245  0.34398786    -0.14400
C458        C  0.29496116  0.24965365  0.36552769     0.37900
N459        N  0.32004598  0.25018550  0.38971550    -0.88600
H460        H  0.26172289  0.29431168  0.38159831     0.19100
H461        H  0.27736579  0.20352621  0.30251790     0.19100
N462        N  0.21933047  0.24644337  0.29494562    -0.87700
H463        H  0.31333683  0.27151402  0.40398224     0.36400
H464        H  0.34644823  0.25629224  0.38184278     0.41500
H465        H  0.20846629  0.21953405  0.29395661     0.41100
H466        H  0.23397941  0.25128146  0.27595815     0.36000
C467        C  0.36087966  0.90877028  0.26795911    -0.25700
C468        C  0.32904377  0.89713443  0.28282812    -0.13800
C469        C  0.29564015  0.89227989  0.26689454     0.36900
C470        C  0.29609591  0.89462887  0.23677126    -0.25100
C471        C  0.32910235  0.90147937  0.22175858    -0.14400
C472        C  0.36127897  0.91086075  0.23774742     0.37900
N473        N  0.39513046  0.92026002  0.22351663    -0.88600
H474        H  0.38652471  0.91385858  0.27963507     0.19100
H475        H  0.27081566  0.88829512  0.22497171     0.19100
N476        N  0.26113834  0.88317869  0.28028130    -0.87700
H477        H  0.41533584  0.90123171  0.22981886     0.36400
H478        H  0.40355058  0.94649723  0.23066557     0.41500
H479        H  0.25545012  0.90328498  0.29583316     0.41100
H480        H  0.26320048  0.85719961  0.29001785     0.36000
C481        C  0.06943501  0.63072067  0.26269462    -0.25700
C482        C  0.08739989  0.65920652  0.27826329    -0.13800
C483        C  0.10047701  0.69053041  0.26301921     0.36900
C484        C  0.09971839  0.69036180  0.23274609    -0.25100
C485        C  0.08584097  0.65991129  0.21705216    -0.14400
C486        C  0.06833310  0.63079334  0.23242531     0.37900
N487        N  0.05107903  0.59992639  0.21814221    -0.88600
H488        H  0.05830174  0.60692520  0.27399516     0.19100
H489        H  0.11224956  0.71336241  0.22134402     0.19100
N490        N  0.11674224  0.72146680  0.27813293    -0.87700
H491        H  0.07110979  0.58540525  0.20666625     0.36400
H492        H  0.03107373  0.61000795  0.20382574     0.41500
H493        H  0.09568070  0.73397953  0.28995307     0.41100
H494        H  0.12639911  0.74147177  0.26370549     0.36000
C495        C  0.09786252  0.49717256  0.37258988    -0.25700
C496        C  0.13044676  0.51621745  0.36491105    -0.13800
C497        C  0.16195038  0.49548837  0.35697405     0.36900
C498        C  0.16026424  0.45669762  0.35738532    -0.25100
C499        C  0.12796945  0.43756435  0.36536644    -0.14400
C500        C  0.09629721  0.45813621  0.37312340     0.37900
N501        N  0.06260969  0.43959655  0.38130262    -0.88600
H502        H  0.07355695  0.51278271  0.37854576     0.19100
H503        H  0.18460839  0.44128157  0.35122827     0.19100
N504        N  0.19574540  0.51365478  0.34849222    -0.87700
H505        H  0.04148097  0.45873747  0.38475146     0.36400
H506        H  0.06749855  0.42683936  0.40115784     0.41500
H507        H  0.19080171  0.52625864  0.32858078     0.41100
H508        H  0.21680130  0.49442198  0.34509504     0.36000
C509        C  0.29968383  0.71052281  0.37044122    -0.25700
C510        C  0.30038988  0.73672874  0.34815832    -0.13800
C511        C  0.27831998  0.73073536  0.32336003     0.36900
C512        C  0.25111211  0.70284399  0.32373481    -0.25100
C513        C  0.24639302  0.68029470  0.34807971    -0.14400
C514        C  0.27318200  0.68181940  0.37041987     0.37900
N515        N  0.27207740  0.65572903  0.39375285    -0.88600
H516        H  0.31779765  0.71406715  0.38896691     0.19100
H517        H  0.23186313  0.70060062  0.30579050     0.19100
N518        N  0.28226864  0.75423402  0.29857290    -0.87700
H519        H  0.29341637  0.66113807  0.40855395     0.36400
H520        H  0.27729016  0.62955062  0.38507172     0.41500
H521        H  0.26361383  0.74635961  0.28231130     0.41100
H522        H  0.30881856  0.75002925  0.29037801     0.36000
C523        C  0.93813406  0.32998842  0.27129887    -0.25700
C524        C  0.92347137  0.29846471  0.28498927    -0.13800
C525        C  0.91577797  0.26661486  0.26820453     0.36900
C526        C  0.91679115  0.26907796  0.23797343    -0.25100
C527        C  0.92592877  0.30249206  0.22411868    -0.14400
C528        C  0.93976136  0.33224630  0.24102289     0.37900
N529        N  0.95342083  0.36537274  0.22751213    -0.88600
H530        H  0.94567349  0.35406453  0.28406676     0.19100
H531        H  0.90772504  0.24548630  0.22524878     0.19100
N532        N  0.90481688  0.23253029  0.28177314    -0.87700
H533        H  0.97711234  0.35819728  0.21599921     0.36400
H534        H  0.96191286  0.38476109  0.24300081     0.41500
H535        H  0.92729204  0.22346733  0.29415995     0.41100
H536        H  0.89963545  0.21195386  0.26636196     0.36000
C537        C  0.71671700  0.08168445  0.23650479    -0.25700
C538        C  0.68553397  0.06823622  0.22140620    -0.13800
C539        C  0.65762660  0.04937210  0.23692174     0.36900
C540        C  0.65930567  0.04859058  0.26723495    -0.25100
C541        C  0.68821009  0.06627931  0.28252151    -0.14400
C542        C  0.71840464  0.08099601  0.26664886     0.37900
N543        N  0.75063905  0.09668620  0.28027373    -0.88600
H544        H  0.73895197  0.09531948  0.22497717     0.19100
H545        H  0.63647893  0.03630587  0.27894800     0.19100
N546        N  0.62662913  0.03283167  0.22202457    -0.87700
H547        H  0.74349158  0.12107177  0.29092180     0.36400
H548        H  0.76120654  0.07753809  0.29502769     0.41500
H549        H  0.60810040  0.02093524  0.23659100     0.41100
H550        H  0.63685837  0.01122452  0.20941263     0.36000
C551        C  0.47946980  0.07640444  0.36950431    -0.25700
C552        C  0.46179204  0.11043769  0.36463012    -0.13800
C553        C  0.48368214  0.14245982  0.36042054     0.36900
C554        C  0.52232114  0.13976084  0.36061481    -0.25100
C555        C  0.54014033  0.10587450  0.36571589    -0.14400
C556        C  0.51834009  0.07372298  0.37023726     0.37900
N557        N  0.53546147  0.03855251  0.37565592    -0.88600
H558        H  0.46291797  0.05163484  0.37274316     0.19100
H559        H  0.53845654  0.16479678  0.35729307     0.19100
N560        N  0.46703233  0.17803737  0.35651418    -0.87700
H561        H  0.54886511  0.03054560  0.35677893     0.36400
H562        H  0.51544468  0.01818958  0.37974544     0.41500
H563        H  0.47595358  0.18883364  0.33684373     0.41100
H564        H  0.47670720  0.19555413  0.37292026     0.36000
C565        C  0.71569876  0.23071593  0.33067087    -0.25700
C566        C  0.69857718  0.22233001  0.35697440    -0.13800
C567        C  0.70566181  0.24525899  0.38109821     0.36900
C568        C  0.73384150  0.27215390  0.37954660    -0.25100
C569        C  0.75505109  0.27630993  0.35450316    -0.14400
C570        C  0.74387786  0.25748059  0.32923593     0.37900
N571        N  0.76231279  0.26391005  0.30246074    -0.88600
H572        H  0.70961077  0.21430281  0.31162956     0.19100
H573        H  0.74134074  0.28753645  0.39879988     0.19100
N574        N  0.68618228  0.23948992  0.40763083    -0.87700
H575        H  0.74243862  0.27209764  0.28730143     0.36400
H576        H  0.77354824  0.23885296  0.29548891     0.41500
H577        H  0.65828420  0.24545406  0.40376500     0.41100
H578        H  0.69540043  0.25813121  0.42342761     0.36000
C579        C  0.65354028  0.90863316  0.26916731    -0.25700
C580        C  0.68419380  0.89251539  0.28316069    -0.13800
C581        C  0.71483423  0.88172632  0.26615686     0.36900
C582        C  0.71263662  0.88409263  0.23614145    -0.25100
C583        C  0.68013274  0.89571434  0.22215891    -0.14400
C584        C  0.65114942  0.91013415  0.23895364     0.37900
N585        N  0.61848431  0.92471574  0.22557893    -0.88600
H586        H  0.63002405  0.91786169  0.28158273     0.19100
H587        H  0.73559621  0.87363961  0.22367859     0.19100
N588        N  0.74793024  0.86645577  0.27834286    -0.87700
H589        H  0.61517992  0.95191040  0.23279112     0.36400
H590        H  0.59571146  0.90923893  0.23263196     0.41500
H591        H  0.75835600  0.88476199  0.29392265     0.41100
H592        H  0.74175595  0.84090338  0.28774681     0.36000
C593        C  0.48535519  0.88172870  0.37831009    -0.25700
C594        C  0.46576967  0.84834208  0.37420230    -0.13800
C595        C  0.48582413  0.81513708  0.37062944     0.36900
C596        C  0.52460467  0.81643084  0.36943246    -0.25100
C597        C  0.54427115  0.84982354  0.37295400    -0.14400
C598        C  0.52436096  0.88286734  0.37786478     0.37900
N599        N  0.54356557  0.91746011  0.38231710    -0.88600
H600        H  0.47018831  0.90720968  0.38136444     0.19100
H601        H  0.53957994  0.79087380  0.36619059     0.19100
N602        N  0.46688966  0.78002522  0.36862548    -0.87700
H603        H  0.52491788  0.93856787  0.38717338     0.36400
H604        H  0.55591512  0.92479705  0.36282051     0.41500
H605        H  0.45437614  0.77510902  0.38851546     0.41100
H606        H  0.48565255  0.75847839  0.36549361     0.36000
C607        C  0.90766690  0.68872927  0.23144011    -0.25700
C608        C  0.91819213  0.65709394  0.21586329    -0.13800
C609        C  0.93037501  0.62575997  0.23140746     0.36900
C610        C  0.92725190  0.62495099  0.26155357    -0.25100
C611        C  0.91283719  0.65512964  0.27687416    -0.14400
C612        C  0.90507925  0.68809929  0.26167260     0.37900
N613        N  0.89272738  0.72047036  0.27655766    -0.88600
H614        H  0.89902431  0.71341923  0.22004978     0.19100
H615        H  0.93440908  0.59969682  0.27282246     0.19100
N616        N  0.94396970  0.59376785  0.21670329    -0.87700
H617        H  0.86669886  0.72764141  0.26834543     0.36400
H618        H  0.91117855  0.74210911  0.27203836     0.41500
H619        H  0.92691190  0.57123070  0.22181829     0.41100
H620        H  0.97053041  0.58822617  0.22463488     0.36000
C621        C  0.89953056  0.45558223  0.37925251    -0.25700
C622        C  0.86869350  0.43656417  0.36772088    -0.13800
C623        C  0.83887303  0.45713641  0.35621906     0.36900
C624        C  0.84054362  0.49595221  0.35679175    -0.25100
C625        C  0.87131760  0.51506864  0.36832517    -0.14400
C626        C  0.90118141  0.49453027  0.37979077     0.37900
N627        N  0.93299935  0.51303488  0.39201742    -0.88600
H628        H  0.92242460  0.43999886  0.38819321     0.19100
H629        H  0.81764229  0.51138293  0.34770637     0.19100
N630        N  0.80704999  0.43879147  0.34377968    -0.87700
H631        H  0.95286593  0.49383465  0.39864812     0.36400
H632        H  0.92432731  0.52671325  0.41062638     0.41500
H633        H  0.81570280  0.42555930  0.32496724     0.41100
H634        H  0.78704715  0.45800340  0.33743835     0.36000
C635        C  0.73589134  0.68187527  0.37678119    -0.25700
C636        C  0.75733533  0.67912329  0.35176745    -0.13800
C637        C  0.74767771  0.70023233  0.32740461     0.36900
C638        C  0.72022247  0.72715077  0.32966197    -0.25100
C639        C  0.70302382  0.73406039  0.35612949    -0.14400
C640        C  0.70882692  0.70942325  0.37930801     0.37900
N641        N  0.68904487  0.71392220  0.40583364    -0.88600
H642        H  0.74255226  0.66495243  0.39534068     0.19100
H643        H  0.71511442  0.74502373  0.31134309     0.19100
N644        N  0.76721584  0.69604070  0.30085337    -0.87700
H645        H  0.69709242  0.69389062  0.42082876     0.36400
H646        H  0.66097703  0.70914537  0.40139402     0.41500
H647        H  0.77932533  0.72154704  0.29565706     0.41100
H648        H  0.74791797  0.68939247  0.28472411     0.36000
O649        O  0.29922614  0.86251698  0.53141275    -0.57200
C650        C  0.28307751  0.87597811  0.94556850     0.75400
O651        O  0.17767802  0.86110685  0.00182354    -0.58300
C652        C  0.28844351  0.87761634  0.55442125     0.75400
C653        C  0.23782184  0.96295664  0.99614948     0.77800
Cd654      Cd  0.24783587  0.88341153  0.50039017     1.37500
O655        O  0.29427163  0.86165149  0.96890958    -0.57200
O656        O  0.27057058  0.94511803  0.49442113    -0.56000
C657        C  0.18790207  0.82843278  0.49939162     0.77800
O658        O  0.21203936  0.94225103  0.50380836    -0.58400
O659        O  0.25252285  0.89295373  0.94646204    -0.56800
O660        O  0.25830528  0.89519821  0.55298629    -0.56800
O661        O  0.21939375  0.82006341  0.99458325    -0.56000
O662        O  0.29984456  0.10154401  0.52617620    -0.57200
C663        C  0.28619874  0.08952531  0.93997748     0.75400
O664        O  0.21157105  0.02154474  0.50206628    -0.58300
C665        C  0.28759891  0.08939168  0.54984720     0.75400
C666        C  0.18935647  0.13747406  0.99484751     0.77800
Cd667      Cd  0.24700507  0.08084482  0.49613284     1.37500
O668        O  0.29676085  0.10592298  0.96274498    -0.57200
O669        O  0.22149893  0.14349870  0.50086780    -0.56000
C670        C  0.24022630  0.00224867  0.49772557     0.77800
O671        O  0.18080384  0.10115401  0.49190379    -0.58400
O672        O  0.25711577  0.06996242  0.94196595    -0.56800
O673        O  0.25591208  0.07421246  0.54914360    -0.56800
O674        O  0.26980207  0.01989584  0.99547249    -0.56000
O675        O  0.88167613  0.69048247  0.96420045    -0.57200
C676        C  0.89839731  0.69756090  0.54903374     0.75400
O677        O  0.96574931  0.77312948  0.49951980    -0.58300
C678        C  0.89937232  0.70073184  0.94214267     0.75400
C679        C  0.85340318  0.79926209  0.49717819     0.77800
Cd680      Cd  0.90586089  0.73800460  0.49513729     1.37500
O681        O  0.88351950  0.68643701  0.52580429    -0.57200
O682        O  0.84175475  0.76661252  0.99294043    -0.56000
C683        C  0.98333992  0.74635939  0.99791667     0.77800
O684        O  0.88432732  0.80606569  0.00388702    -0.58400
O685        O  0.91683279  0.72742218  0.54765566    -0.56800
O686        O  0.91859853  0.72997036  0.94473009    -0.56800
O687        O  0.96771228  0.71451196  0.49043605    -0.56000
O688        O  0.13003229  0.69010310  0.96471637    -0.57200
C689        C  0.11129793  0.69775671  0.55077594     0.75400
O690        O  0.12531281  0.80550280  0.49290218    -0.58300
C691        C  0.11073187  0.69769411  0.94266827     0.75400
C692        C  0.02561205  0.74463439  0.49524180     0.77800
Cd693      Cd  0.10473955  0.73831387  0.49682706     1.37500
O694        O  0.12965648  0.68960592  0.52858853    -0.57200
O695        O  0.04028138  0.71574262  0.00324626    -0.56000
C696        C  0.15713454  0.79760968  0.99739593     0.77800
O697        O  0.04513631  0.77319257  0.50075544    -0.58400
O698        O  0.09003735  0.72534105  0.54864182    -0.56800
O699        O  0.08778331  0.72371381  0.94543872    -0.56800
O700        O  0.16719228  0.76582319  0.50342181    -0.56000
O701        O  0.71167420  0.85859837  0.97390909    -0.57200
C702        C  0.72657406  0.87361751  0.55470029     0.75400
O703        O  0.83233079  0.86245929  0.49376483    -0.58300
C704        C  0.72278016  0.87255507  0.95049402     0.75400
C705        C  0.77470864  0.96203306  0.49878663     0.77800
Cd706      Cd  0.76620878  0.88322578  0.50060819     1.37500
O707        O  0.71855057  0.85564462  0.53207427    -0.57200
O708        O  0.73915752  0.94468126  0.99891830    -0.56000
C709        C  0.82527571  0.82861968  0.49855041     0.77800
O710        O  0.80129556  0.94285595  0.50857817    -0.58400
O711        O  0.75360792  0.89598672  0.55294745    -0.56800
O712        O  0.75255794  0.89123545  0.95170382    -0.56800
O713        O  0.79210487  0.82076431  0.50458235    -0.56000
O714        O  0.71086109  0.09904158  0.97181891    -0.57200
C715        C  0.72279863  0.08622729  0.55518387     0.75400
O716        O  0.79952838  0.02257402  0.50998665    -0.58300
C717        C  0.72492778  0.08856629  0.94832275     0.75400
C718        C  0.82307566  0.13567904  0.50299325     0.77800
Cd719      Cd  0.76331445  0.08072348  0.50106537     1.37500
O720        O  0.71753192  0.10833327  0.53443965    -0.57200
O721        O  0.78967169  0.14546636  0.00425559    -0.56000
C722        C  0.76980339  0.00238205  0.00204417     0.77800
O723        O  0.83048703  0.10263852  0.00346600    -0.58400
O724        O  0.74691179  0.06154505  0.55130771    -0.56800
O725        O  0.75753404  0.07599365  0.94969848    -0.56800
O726        O  0.74701522  0.01890678  0.48757460    -0.56000
O727        O  0.92328296  0.62700616  0.82033614    -0.57200
C728        C  0.89639358  0.68008847  0.91485217     0.75400
O729        O  0.81211151  0.64332131  0.86743361    -0.58300
C730        C  0.91876363  0.65688860  0.80654834     0.75400
C731        C  0.88315713  0.56320517  0.86288512     0.77800
Cd732      Cd  0.88051912  0.64302409  0.86052958     1.37500
O733        O  0.91530503  0.68790046  0.89274748    -0.57200
O734        O  0.90879792  0.58303530  0.87383800    -0.56000
C735        C  0.80652015  0.67012750  0.85048537     0.77800
O736        O  0.85667953  0.58060881  0.85112448    -0.58400
O737        O  0.87356907  0.65373841  0.91224470    -0.56800
O738        O  0.90101793  0.68180624  0.81962961    -0.56800
O739        O  0.83451466  0.68210753  0.83716463    -0.56000
O740        O  0.71109448  0.88116680  0.89969297    -0.57200
C741        C  0.66413970  0.87963206  0.81346785     0.75400
O742        O  0.66444657  0.77760533  0.87412736    -0.58300
C743        C  0.70216328  0.86630855  0.92340702     0.75400
C744        C  0.58466586  0.85725702  0.88216254     0.77800
Cd745      Cd  0.66202925  0.84715051  0.87078065     1.37500
O746        O  0.68860677  0.88835196  0.83212634    -0.57200
O747        O  0.60659377  0.88489311  0.88200018    -0.56000
C748        C  0.69247697  0.77519436  0.85805139     0.77800
O749        O  0.59926634  0.82581345  0.87833330    -0.58400
O750        O  0.63836887  0.85860829  0.82211155    -0.56800
O751        O  0.67443775  0.84486858  0.92276843    -0.56800
O752        O  0.70465358  0.80524450  0.84785543    -0.56000
O753        O  0.70725990  0.09314917  0.82754961    -0.57200
C754        C  0.70451724  0.09207465  0.92092078     0.75400
O755        O  0.67462664  0.17504018  0.88178869    -0.58300
C756        C  0.68437464  0.07204918  0.81478009     0.75400
C757        C  0.58661657  0.10736781  0.86749596     0.77800
Cd758      Cd  0.66631806  0.10995110  0.86751371     1.37500
O759        O  0.71845586  0.08363329  0.89687923    -0.57200
O760        O  0.60560587  0.08012283  0.87624324    -0.56000
C761        C  0.68991339  0.18489108  0.85860488     0.77800
O762        O  0.60478666  0.13544658  0.85912573    -0.58400
O763        O  0.67210676  0.10490379  0.92024027    -0.56800
O764        O  0.65524824  0.06425023  0.82866641    -0.56800
O765        O  0.69100325  0.16077209  0.83891876    -0.56000
O766        O  0.90493808  0.27169825  0.89676443    -0.57200
C767        C  0.91429007  0.30543481  0.81441299     0.75400
O768        O  0.80762127  0.31865418  0.87577357    -0.58300
C769        C  0.89320129  0.28362118  0.92062600     0.75400
C770        C  0.87879067  0.40195525  0.86549960     0.77800
Cd771      Cd  0.87538606  0.32172777  0.86706095     1.37500
O772        O  0.88657917  0.28719425  0.82310109    -0.57200
O773        O  0.90559348  0.38299136  0.87508684    -0.56000
C774        C  0.80130171  0.29463516  0.85640351     0.77800
O775        O  0.85037546  0.38372986  0.85761513    -0.58400
O776        O  0.92726985  0.32946899  0.83176327    -0.56800
O777        O  0.87600279  0.31388983  0.91989630    -0.56800
O778        O  0.82858238  0.28544678  0.84118186    -0.56000
O779        O  0.09532947  0.68297769  0.89326773    -0.57200
C780        C  0.09227818  0.65026859  0.80609740     0.75400
O781        O  0.20253825  0.64844072  0.86043706    -0.58300
C782        C  0.11593095  0.67804028  0.91512605     0.75400
C783        C  0.13640403  0.56387987  0.86398202     0.77800
Cd784      Cd  0.13340614  0.64313820  0.86009600     1.37500
O785        O  0.10935847  0.67729488  0.81754719    -0.57200
O786        O  0.10783884  0.58165286  0.87146533    -0.56000
C787        C  0.20299322  0.67744715  0.84513819     0.77800
O788        O  0.16365362  0.58311019  0.85538404    -0.58400
O789        O  0.09050566  0.62116251  0.82120302    -0.56800
O790        O  0.14234269  0.65580409  0.91194073    -0.56800
O791        O  0.17189749  0.68849557  0.83609387    -0.56000
O792        O  0.29917214  0.89230446  0.89683487    -0.57200
C793        C  0.34766676  0.89742572  0.81168295     0.75400
O794        O  0.40667344  0.83220785  0.87466200    -0.58300
C795        C  0.30468115  0.87240913  0.91892887     0.75400
C796        C  0.31146556  0.79097070  0.84799219     0.77800
Cd797      Cd  0.34635777  0.85921995  0.86653055     1.37500
O798        O  0.32471132  0.90755985  0.83068970    -0.57200
O799        O  0.29876775  0.82264119  0.84227548    -0.56000
C800        C  0.42432709  0.86166465  0.88063358     0.77800
O801        O  0.34172513  0.79038869  0.86189437    -0.58400
O802        O  0.37035827  0.87271667  0.81921058    -0.56800
O803        O  0.33015712  0.84879513  0.91713346    -0.56800
O804        O  0.40534352  0.89116019  0.88131541    -0.56000
O805        O  0.11045038  0.28594890  0.82390241    -0.57200
C806        C  0.12064574  0.28800653  0.91710440     0.75400
O807        O  0.20508217  0.31808550  0.86807244    -0.58300
C808        C  0.09767148  0.31247837  0.80910039     0.75400
C809        C  0.13779367  0.40347374  0.86774635     0.77800
Cd810      Cd  0.13739402  0.32445065  0.86288704     1.37500
O811        O  0.10032011  0.28257565  0.89511607    -0.57200
O812        O  0.10947291  0.38438133  0.87431713    -0.56000
C813        C  0.20828867  0.29470655  0.84795330     0.77800
O814        O  0.16589621  0.38564063  0.85946096    -0.58400
O815        O  0.14641568  0.31141232  0.91441108    -0.56800
O816        O  0.09893564  0.34406109  0.82099668    -0.56800
O817        O  0.17913451  0.28706673  0.83396825    -0.56000
O818        O  0.30770926  0.09096641  0.81784927    -0.57200
C819        C  0.30662341  0.09407843  0.91274506     0.75400
O820        O  0.40794496  0.13846188  0.85504504    -0.58300
C821        C  0.33249526  0.07230446  0.80540039     0.75400
C822        C  0.31864899  0.18493212  0.84683303     0.77800
Cd823      Cd  0.34563006  0.11152835  0.85931265     1.37500
O824        O  0.29805047  0.07732768  0.88961013    -0.57200
O825        O  0.31254881  0.15779850  0.83023851    -0.56000
C826        C  0.42557520  0.11058479  0.86417810     0.77800
O827        O  0.33989218  0.17873290  0.86800552    -0.58400
O828        O  0.33384094  0.11598894  0.91134470    -0.56800
O829        O  0.36217048  0.06773245  0.81966124    -0.56800
O830        O  0.40603112  0.08278054  0.87131984    -0.56000
O831        O  0.88165824  0.27347424  0.53465510    -0.57200
C832        C  0.89840886  0.26342480  0.94785809     0.75400
O833        O  0.96606201  0.18886703  0.50675477    -0.58300
C834        C  0.89942989  0.26475891  0.55721033     0.75400
C835        C  0.85290050  0.16596123  0.00362057     0.77800
Cd836      Cd  0.90680101  0.22439481  0.50313710     1.37500
O837        O  0.88856355  0.27722125  0.97164709    -0.57200
O838        O  0.84377298  0.19833366  0.50686033    -0.56000
C839        C  0.98558188  0.21699838  0.50038871     0.77800
O840        O  0.88624184  0.15763907  0.50106245    -0.58400
O841        O  0.91217534  0.23130583  0.94879666    -0.56800
O842        O  0.92045494  0.23699717  0.55524258    -0.56800
O843        O  0.97110011  0.25051167  0.00076578    -0.56000
O844        O  0.13485713  0.27553840  0.96644969    -0.57200
C845        C  0.11210591  0.25986078  0.55358818     0.75400
O846        O  0.04520091  0.18776076  0.50351846    -0.58300
C847        C  0.11577588  0.26768825  0.94425834     0.75400
C848        C  0.15898234  0.16359255  0.49719431     0.77800
Cd849      Cd  0.10473591  0.22249861  0.49852316     1.37500
O850        O  0.12456850  0.27319806  0.53037871    -0.57200
O851        O  0.17036624  0.20053241  0.99374800    -0.56000
C852        C  0.02893368  0.22074965  0.99877142     0.77800
O853        O  0.12690523  0.16017235  0.99859969    -0.58400
O854        O  0.09622636  0.22862195  0.55185466    -0.56800
O855        O  0.09323430  0.24091722  0.94651176    -0.56800
O856        O  0.04334858  0.24642599  0.49415331    -0.56000
O857        O  0.90374087  0.68033766  0.66956538    -0.57200
C858        C  0.89315810  0.67743216  0.57631512     0.75400
O859        O  0.84707664  0.57970590  0.63544689    -0.58300
C860        C  0.91643809  0.65349352  0.68406034     0.75400
C861        C  0.80394540  0.67190152  0.64569326     0.77800
Cd862      Cd  0.87517031  0.64156371  0.63090186     1.37500
O863        O  0.91085251  0.68545264  0.59914799    -0.57200
O864        O  0.83335577  0.67987454  0.65925520    -0.56000
C865        C  0.87528939  0.56162664  0.62769856     0.77800
O866        O  0.80690375  0.64786228  0.62603563    -0.58400
O867        O  0.86958975  0.65165218  0.57830103    -0.56800
O868        O  0.91414894  0.62203195  0.67211591    -0.56800
O869        O  0.90359766  0.58073453  0.62104334    -0.56000
O870        O  0.68895730  0.89387153  0.67289596    -0.57200
C871        C  0.70541400  0.86808331  0.58144459     0.75400
O872        O  0.66550846  0.78365839  0.63384709    -0.58300
C873        C  0.66436802  0.88369298  0.69073610     0.75400
C874        C  0.58627167  0.85914052  0.62109304     0.77800
Cd875      Cd  0.66385220  0.85201417  0.63355738     1.37500
O876        O  0.70955755  0.88828237  0.60365388    -0.57200
O877        O  0.60729824  0.88748953  0.62128611    -0.56000
C878        C  0.69502902  0.78223988  0.64865993     0.77800
O879        O  0.60186112  0.82821451  0.62498297    -0.58400
O880        O  0.68174606  0.84230428  0.58319790    -0.56800
O881        O  0.63986898  0.86157891  0.68131133    -0.56800
O882        O  0.70865155  0.81278089  0.65695196    -0.56000
O883        O  0.70406547  0.06619815  0.60256964    -0.57200
C884        C  0.67986478  0.06732429  0.69249047     0.75400
O885        O  0.66797818  0.17327298  0.63792454    -0.58300
C886        C  0.70269020  0.09009516  0.58257868     0.75400
C887        C  0.58802028  0.10188326  0.63188411     0.77800
Cd888      Cd  0.66723634  0.10435282  0.63773432     1.37500
O889        O  0.70649082  0.07514573  0.67589597    -0.57200
O890        O  0.60742008  0.07409571  0.62494324    -0.56000
C891        C  0.69776636  0.17547195  0.65238795     0.77800
O892        O  0.60550303  0.13006161  0.64116740    -0.58400
O893        O  0.64775278  0.07252077  0.68228610    -0.56800
O894        O  0.68360339  0.11848068  0.58753116    -0.56800
O895        O  0.71165047  0.14528352  0.66067289    -0.56000
O896        O  0.90905860  0.34296985  0.68345691    -0.57200
C897        C  0.89458674  0.28521696  0.58440363     0.75400
O898        O  0.80877213  0.31592579  0.63553256    -0.58300
C899        C  0.91670786  0.31115884  0.69310197     0.75400
C900        C  0.87867037  0.40073322  0.63207852     0.77800
Cd901      Cd  0.87736615  0.32133512  0.63875545     1.37500
O902        O  0.91473179  0.28001274  0.60648154    -0.57200
O903        O  0.90600683  0.38102580  0.62465083    -0.56000
C904        C  0.80670025  0.28789976  0.65174192     0.77800
O905        O  0.85099726  0.38345903  0.64223620    -0.58400
O906        O  0.86897197  0.30851860  0.58701857    -0.56800
O907        O  0.91004404  0.28428421  0.67623801    -0.56800
O908        O  0.83672843  0.27724519  0.66295000    -0.56000
O909        O  0.08374772  0.66330732  0.66459471    -0.57200
C910        C  0.11563161  0.67658477  0.57765035     0.75400
O911        O  0.19932380  0.64928514  0.62964500    -0.58300
C912        C  0.09377652  0.64263426  0.68529493     0.75400
C913        C  0.13051670  0.55913984  0.62238462     0.77800
Cd914      Cd  0.13194404  0.63844913  0.63109083     1.37500
O915        O  0.09582047  0.68196365  0.59968279    -0.57200
O916        O  0.10128291  0.57827656  0.62021231    -0.56000
C917        C  0.19888924  0.67786303  0.64539371     0.77800
O918        O  0.16014693  0.57710814  0.62739794    -0.58400
O919        O  0.14033733  0.65218822  0.57990730    -0.56800
O920        O  0.11941811  0.61995035  0.68015626    -0.56800
O921        O  0.16791156  0.68634145  0.65589194    -0.56000
O922        O  0.32655954  0.90539570  0.67103694    -0.57200
C923        C  0.30951682  0.87352924  0.58142274     0.75400
O924        O  0.40853800  0.83033540  0.62655456    -0.58300
C925        C  0.34855025  0.89392953  0.69049735     0.75400
C926        C  0.30965149  0.79100208  0.64911943     0.77800
Cd927      Cd  0.34816073  0.85790694  0.63479345     1.37500
O928        O  0.30325992  0.89273530  0.60373724    -0.57200
O929        O  0.29736097  0.82273212  0.65503263    -0.56000
C930        C  0.42605232  0.86023042  0.62192270     0.77800
O931        O  0.34137041  0.78979323  0.63774002    -0.58400
O932        O  0.33471163  0.84961829  0.58349505    -0.56800
O933        O  0.36998458  0.86795946  0.68345136    -0.56800
O934        O  0.40706543  0.88972131  0.62235689    -0.56000
O935        O  0.10531467  0.26796060  0.60489749    -0.57200
C936        C  0.09854182  0.30511699  0.68693713     0.75400
O937        O  0.20151834  0.31042234  0.61808095    -0.58300
C938        C  0.11724218  0.27972151  0.58095658     0.75400
C939        C  0.13450129  0.39854720  0.62687773     0.77800
Cd940      Cd  0.13681986  0.31922864  0.63320231     1.37500
O941        O  0.12088065  0.28220131  0.67609878    -0.57200
O942        O  0.10772007  0.37823189  0.61852454    -0.56000
C943        C  0.21211571  0.29497611  0.64105021     0.77800
O944        O  0.16153086  0.38198584  0.63851243    -0.56000
O945        O  0.09034818  0.33260664  0.67123645    -0.56800
O946        O  0.13509577  0.30976524  0.58152116    -0.56800
O947        O  0.18877718  0.29397853  0.66118132    -0.56000
O948        O  0.30828677  0.09282501  0.67007085    -0.57200
C949        C  0.30893008  0.09374663  0.57675492     0.75400
O950        O  0.33766470  0.17639758  0.61680365    -0.58300
C951        C  0.33172830  0.07284165  0.68306421     0.75400
C952        C  0.42781003  0.10805876  0.62638454     0.77800
Cd953      Cd  0.34842291  0.11131662  0.62977702     1.37500
O954        O  0.29819730  0.08058926  0.60056549    -0.57200
O955        O  0.40780449  0.07987128  0.62092396    -0.56000
C956        C  0.32333550  0.18534721  0.64054193     0.77800
O957        O  0.41083751  0.13742955  0.63295773    -0.58400
O958        O  0.33894548  0.11177863  0.57725648    -0.56800
O959        O  0.36144150  0.06670416  0.66954149    -0.56800
O960        O  0.32437582  0.16111074  0.66008999    -0.56000
C961        C  0.29903614  0.24404232  0.62016200    -0.25700
C962        C  0.30312982  0.22059442  0.64408898    -0.13800
C963        C  0.28270327  0.22805528  0.66920559     0.36900
C964        C  0.25546149  0.25543885  0.66867063    -0.25100
C965        C  0.24811031  0.27570160  0.64350887    -0.14400
C966        C  0.27198190  0.27184511  0.61968815     0.37900
N967        N  0.26747372  0.29465018  0.59456391    -0.88600
H968        H  0.31535190  0.23923024  0.60103938     0.19100
H969        H  0.23824253  0.25888889  0.68749765     0.19100
N970        N  0.28792624  0.20659831  0.69483470    -0.87700
H971        H  0.28677262  0.28763435  0.57881272     0.36400
H972        H  0.27348508  0.32193409  0.60068089     0.41500
H973        H  0.26273239  0.19378532  0.69988913     0.41100
H974        H  0.29489027  0.22472680  0.71163514     0.36000
C975        C  0.09976373  0.45754127  0.62071932    -0.25700
C976        C  0.13395343  0.43948273  0.62360609    -0.13800
C977        C  0.16691004  0.46087217  0.62374216     0.36900
C978        C  0.16480787  0.49959804  0.62154093    -0.25100
C979        C  0.13058818  0.51791663  0.62030413    -0.14400
C980        C  0.09760752  0.49646164  0.61948104     0.37900
N981        N  0.06200794  0.51405279  0.61854505    -0.88600
H982        H  0.07442653  0.44126793  0.62042283     0.19100
H983        H  0.19026470  0.51566465  0.62195583     0.19100
N984        N  0.20249506  0.44343480  0.62624918    -0.87700
H985        H  0.04067981  0.49438682  0.61981801     0.36400
H986        H  0.05930755  0.52666157  0.59839068     0.41500
H987        H  0.20532072  0.43435386  0.64751718     0.41100
H988        H  0.22382454  0.46273272  0.62315874     0.36000
C989        C  0.22993336  0.72980594  0.67104134    -0.25700
C990        C  0.23186982  0.70169798  0.65015838    -0.13800
C991        C  0.26329614  0.69986269  0.63217131     0.36900
C992        C  0.29031308  0.72799688  0.63387816    -0.25100
C993        C  0.28652842  0.75768058  0.65311306    -0.14400
C994        C  0.25708588  0.75753083  0.67280918     0.37900
N995        N  0.25427638  0.78590593  0.69428817    -0.88600
H996        H  0.20648437  0.73116239  0.68544516     0.19100
H997        H  0.31314637  0.72795750  0.61885372     0.19100
N998        N  0.26667660  0.67089668  0.61109101    -0.87700
H999        H  0.25398418  0.77316459  0.71449889     0.36400
H1000       H  0.22898132  0.79939062  0.69138695     0.41500
H1001       H  0.27046550  0.64606970  0.62226141     0.41100
H1002       H  0.29045237  0.67479952  0.59869516     0.36000
C1003       C  0.52929536  0.13670323  0.62765663    -0.25700
C1004       C  0.54708751  0.10230513  0.62920312    -0.13800
C1005       C  0.52544085  0.06961988  0.62846483     0.36900
C1006       C  0.48661718  0.07200864  0.62691174    -0.25100
C1007       C  0.46884924  0.10653252  0.62591939    -0.14400
C1008       C  0.49067073  0.13910893  0.62561727     0.37900
N1009       N  0.47389405  0.17478081  0.62276483    -0.88600
H1010       H  0.54548231  0.16210265  0.62768768     0.19100
H1011       H  0.47033717  0.04667747  0.62707895     0.19100
N1012       N  0.54256106  0.03399846  0.62994517    -0.87700
H1013       H  0.48458655  0.18747396  0.60434829     0.36400
H1014       H  0.48165326  0.19081042  0.64061631     0.41500
H1015       H  0.53473795  0.01907075  0.61154529     0.41100
H1016       H  0.53211136  0.02005376  0.64789499     0.36000
C1017       C  0.71609004  0.23841050  0.63632355    -0.25700
C1018       C  0.71750389  0.21076023  0.65749427    -0.13800
C1019       C  0.74319542  0.21406946  0.68039611     0.36900
C1020       C  0.77032443  0.24198649  0.67944565    -0.25100
C1021       C  0.77202280  0.26672891  0.65618569    -0.14400
C1022       C  0.74334658  0.26628604  0.63536694     0.37900
N1023       N  0.74341912  0.29207643  0.61195665    -0.88600
H1024       H  0.69599640  0.23643610  0.61891749     0.19100
H1025       H  0.79158917  0.24297046  0.69603529     0.19100
N1026       N  0.74283386  0.18783539  0.70368010    -0.87700
H1027       H  0.71830577  0.30632734  0.61219363     0.36400
H1028       H  0.74468362  0.27709749  0.59269760     0.41500
H1029       H  0.71773563  0.19089997  0.71450168     0.41100
H1030       H  0.76385810  0.19388663  0.71860505     0.36000
C1031       C  0.48673131  0.89401624  0.62093926    -0.25700
C1032       C  0.46683089  0.86063476  0.61765143    -0.13800
C1033       C  0.48664039  0.82762778  0.61279755     0.36900
C1034       C  0.52544253  0.82828029  0.61281435    -0.25100
C1035       C  0.54541775  0.86126116  0.61759693    -0.14400
C1036       C  0.52570882  0.89456907  0.62123618     0.37900
N1037       N  0.54495238  0.92875772  0.62651955    -0.88600
H1038       H  0.47207446  0.91965524  0.62466927     0.19100
H1039       H  0.53998363  0.80242747  0.60971801     0.19100
N1040       N  0.46761923  0.79313039  0.60821964    -0.87700
H1041       H  0.53621051  0.93922910  0.64633381     0.36400
H1042       H  0.53718985  0.94752917  0.61049076     0.41500
H1043       H  0.47608610  0.77465800  0.62425719     0.41100
H1044       H  0.47581947  0.78245504  0.58832935     0.36000
C1045       C  0.84446949  0.46033692  0.62996165    -0.25700
C1046       C  0.87857654  0.44181976  0.62935106    -0.13800
C1047       C  0.91155552  0.46289287  0.62672303     0.36900
C1048       C  0.90962906  0.50183263  0.62571881    -0.25100
C1049       C  0.87554663  0.52036727  0.62705063    -0.14400
C1050       C  0.84249445  0.49917962  0.62844847     0.37900
N1051       N  0.80697997  0.51700002  0.62811815    -0.88600
H1052       H  0.81902511  0.44436677  0.63138390     0.19100
H1053       H  0.93507464  0.51782394  0.62448464     0.19100
N1054       N  0.94693956  0.44491889  0.62554012    -0.87700
H1055       H  0.78556116  0.49746160  0.62959273     0.36400
H1056       H  0.80388774  0.52980090  0.60806209     0.41500
H1057       H  0.95163273  0.43244563  0.64553511     0.41100
H1058       H  0.96823396  0.46434720  0.62277881     0.36000
C1059       C  0.76844595  0.71705059  0.67460066    -0.25700
C1060       C  0.76917741  0.69212059  0.65132574    -0.13800
C1061       C  0.73936737  0.69176677  0.63147207     0.36900
C1062       C  0.71215834  0.71917497  0.63313481    -0.25100
C1063       C  0.71482272  0.74736510  0.65385350    -0.14400
C1064       C  0.74161380  0.74486349  0.67600713     0.37900
N1065       N  0.74286965  0.77194260  0.69876642    -0.88600
H1066       H  0.79047071  0.71668422  0.69057897     0.19100
H1067       H  0.69111915  0.72044912  0.61639388     0.19100
N1068       N  0.73801911  0.66555352  0.60830296    -0.87700
H1069       H  0.76459211  0.76642319  0.71311792     0.36400
H1070       H  0.71833383  0.76936925  0.71044844     0.41500
H1071       H  0.73822097  0.68020852  0.58889156     0.41100
H1072       H  0.71290072  0.65106509  0.60952044     0.36000
C1073       C  0.29604332  0.07124318  0.75960706    -0.25700
C1074       C  0.32806652  0.06042845  0.77472897    -0.13800
C1075       C  0.35738728  0.04462709  0.75902096     0.36900
C1076       C  0.35645819  0.04520860  0.72869204    -0.25100
C1077       C  0.32654529  0.06101897  0.71360047    -0.14400
C1078       C  0.29479418  0.07142274  0.72929764     0.37900
N1079       N  0.26215482  0.08423324  0.71455825    -0.88600
H1080       H  0.27268804  0.08208396  0.77138474     0.19100
H1081       H  0.38050964  0.03568312  0.71705760     0.19100
N1082       N  0.38896195  0.02959485  0.77361754    -0.87700
H1083       H  0.24160389  0.09144435  0.72925788     0.36400
H1084       H  0.25157185  0.06200794  0.70252367     0.41500
H1085       H  0.41255278  0.04389407  0.76669432     0.41100
H1086       H  0.39150977  0.00188596  0.76737785     0.36000
C1087       C  0.07265053  0.33395086  0.73128467    -0.25700
C1088       C  0.08631804  0.30221079  0.71747698    -0.13800
C1089       C  0.09466366  0.27077274  0.73440300     0.36900
C1090       C  0.09465721  0.27372423  0.76465082    -0.25100
C1091       C  0.08603550  0.30724953  0.77844717    -0.14400
C1092       C  0.07253009  0.33677084  0.76151338     0.37900
N1093       N  0.06038083  0.37037369  0.77475219    -0.88600
H1094       H  0.06484927  0.35794199  0.71868207     0.19100
H1095       H  0.10395070  0.25039186  0.77737583     0.19100
N1096       N  0.10491107  0.23651862  0.72090289    -0.87700
H1097       H  0.03294487  0.37489145  0.76837166     0.36400
H1098       H  0.07655554  0.39219982  0.76686517     0.41500
H1099       H  0.08182912  0.22691786  0.70930358     0.41100
H1100       H  0.11081627  0.21635492  0.73638516     0.36000
C1101       C  0.27014788  0.27432165  0.86476819    -0.25700
C1102       C  0.24322454  0.27474797  0.84283345    -0.13800
C1103       C  0.24743331  0.25131154  0.81878393     0.36900
C1104       C  0.27531492  0.22452510  0.81900985    -0.25100
C1105       C  0.29894990  0.22051295  0.84298382    -0.14400
C1106       C  0.29805591  0.24741722  0.86514812     0.37900
N1107       N  0.32359066  0.24578583  0.88900679    -0.88600
H1108       H  0.26771514  0.29304268  0.88290684     0.19100
H1109       H  0.27654217  0.20502704  0.80127494     0.19100
N1110       N  0.22239724  0.25333492  0.79474108    -0.87700
H1111       H  0.31815079  0.26671608  0.90395296     0.36400
H1112       H  0.35005444  0.25117386  0.88095243     0.41500
H1113       H  0.20939593  0.22753165  0.79231813     0.41100
H1114       H  0.23792863  0.25845198  0.77622854     0.36000
C1115       C  0.38135424  0.90940424  0.76659737    -0.25700
C1116       C  0.34764353  0.91073802  0.78141028    -0.13800
C1117       C  0.31454121  0.91598551  0.76534365     0.36900
C1118       C  0.31550019  0.91466788  0.73502079    -0.25100
C1119       C  0.34889312  0.90795541  0.72054959    -0.14400
C1120       C  0.38221349  0.90772313  0.73649600     0.37900
N1121       N  0.41698771  0.90363654  0.72218878    -0.88600
H1122       H  0.40711745  0.90645882  0.77849902     0.19100
H1123       H  0.28968167  0.91543144  0.72298612     0.19100
N1124       N  0.27938454  0.91976817  0.77909250    -0.87700
H1125       H  0.42968813  0.87967547  0.72998573     0.36400
H1126       H  0.43378536  0.92630658  0.72770082     0.41500
H1127       H  0.28074294  0.94279993  0.79274866     0.41100
H1128       H  0.27429027  0.89612418  0.79144939     0.36000
C1129       C  0.07088965  0.61735863  0.76167428    -0.25700
C1130       C  0.07902944  0.65112227  0.77558271    -0.13800
C1131       C  0.08125262  0.68374097  0.75874735     0.36900
C1132       C  0.08136694  0.68091400  0.72844653    -0.25100
C1133       C  0.07928750  0.64623576  0.71485627    -0.14400
C1134       C  0.07131386  0.61457959  0.73159204     0.37900
N1135       N  0.06489244  0.57902120  0.71863342    -0.88600
H1136       H  0.06756278  0.59222731  0.77414753     0.19100
H1137       H  0.08654454  0.70541913  0.71559237     0.19100
N1138       N  0.08565142  0.71927284  0.77238638    -0.87700
H1139       H  0.08887618  0.57049322  0.70817464     0.36400
H1140       H  0.04375303  0.58167212  0.70327785     0.41500
H1141       H  0.06155218  0.72429683  0.78408273     0.41100
H1142       H  0.08754007  0.74026733  0.75696529     0.36000
C1143       C  0.11027768  0.50370925  0.88078872    -0.25700
C1144       C  0.13766856  0.52282140  0.86526505    -0.13800
C1145       C  0.16561647  0.50241203  0.85127725     0.36900
C1146       C  0.16568976  0.46364327  0.85344693    -0.25100
C1147       C  0.13797778  0.44452091  0.86855863    -0.14400
C1148       C  0.11024371  0.46486167  0.88278379     0.37900
N1149       N  0.08228290  0.44617620  0.89933458    -0.88600
H1150       H  0.08888581  0.51916151  0.89167617     0.19100
H1151       H  0.18692911  0.44820386  0.84236564     0.19100
N1152       N  0.19330157  0.52085654  0.83428401    -0.87700
H1153       H  0.06359935  0.46515825  0.90793599     0.36400
H1154       H  0.09553088  0.43364315  0.91685568     0.41500
H1155       H  0.17987145  0.53231338  0.81639611     0.41100
H1156       H  0.21236845  0.50187725  0.82620431     0.36000
C1157       C  0.29624390  0.72423379  0.85632134    -0.25700
C1158       C  0.29029642  0.75693101  0.84057864    -0.13800
C1159       C  0.26048701  0.75831410  0.82079188     0.36900
C1160       C  0.23397388  0.72984102  0.82073178    -0.25100
C1161       C  0.23694660  0.69961660  0.83957567    -0.14400
C1162       C  0.27000004  0.69513538  0.85567607     0.37900
N1163       N  0.27585438  0.66228369  0.87250102    -0.88600
H1164       H  0.31998930  0.72238417  0.87064282     0.19100
H1165       H  0.20966069  0.73249289  0.80708174     0.19100
N1166       N  0.25623184  0.78947876  0.80182163    -0.87700
H1167       H  0.30130626  0.66375623  0.88335840     0.36400
H1168       H  0.27771081  0.64005128  0.85813213     0.41500
H1169       H  0.23237122  0.78654813  0.78909093     0.41100
H1170       H  0.27869659  0.78945432  0.78773023     0.36000
C1171       C  0.94376229  0.33196086  0.77054798    -0.25700
C1172       C  0.92745966  0.30135387  0.78433479    -0.13800
C1173       C  0.91663985  0.27034371  0.76758995     0.36900
C1174       C  0.91733482  0.27271765  0.73737951    -0.25100
C1175       C  0.92847746  0.30546535  0.72354540    -0.14400
C1176       C  0.94425768  0.33438516  0.74023537     0.37900
N1177       N  0.95889599  0.36685758  0.72639892    -0.88600
H1178       H  0.95307206  0.35545262  0.78329336     0.19100
H1179       H  0.90603841  0.25002711  0.72470518     0.19100
N1180       N  0.90269310  0.23743737  0.78129341    -0.87700
H1181       H  0.98161348  0.35858881  0.71417203     0.36400
H1182       H  0.96902846  0.38571544  0.74169885     0.41500
H1183       H  0.92437472  0.22620627  0.79343169     0.41100
H1184       H  0.89514670  0.21748030  0.76595619     0.36000
C1185       C  0.71819126  0.06888654  0.73730047    -0.25700
C1186       C  0.68569519  0.05692433  0.72318865    -0.13800
C1187       C  0.65675209  0.04164177  0.73976370     0.36900
C1188       C  0.65871242  0.04364123  0.77001132    -0.25100
C1189       C  0.68904135  0.06050733  0.78415831    -0.14400
C1190       C  0.72017354  0.07105952  0.76743106     0.37900
N1191       N  0.75359163  0.08556130  0.78006520    -0.88600
H1192       H  0.74111449  0.07976882  0.72488012     0.19100
H1193       H  0.63519882  0.03417546  0.78243762     0.19100
N1194       N  0.62476970  0.02557442  0.72583791    -0.87700
H1195       H  0.74820962  0.11119270  0.78954485     0.36400
H1196       H  0.76297659  0.06698743  0.79571872     0.41500
H1197       H  0.60589404  0.01582400  0.74108726     0.41100
H1198       H  0.63369656  0.00240719  0.71434161     0.36000
C1199       C  0.48513425  0.07689953  0.87211771    -0.25700
C1200       C  0.46679116  0.11023160  0.86593255    -0.13800
C1201       C  0.48822098  0.14242580  0.86092698     0.36900
C1202       C  0.52697613  0.14049821  0.86132407    -0.25100
C1203       C  0.54540501  0.10715387  0.86711437    -0.14400
C1204       C  0.52411688  0.07492067  0.87269032     0.37900
N1205       N  0.54189568  0.04026103  0.87876181    -0.88600
H1206       H  0.46901339  0.05202821  0.87607817     0.19100
H1207       H  0.54270898  0.16562068  0.85732592     0.19100
N1208       N  0.47092589  0.17742114  0.85579123    -0.87700
H1209       H  0.55474181  0.03151900  0.85984167     0.36400
H1210       H  0.52227752  0.01991874  0.88385834     0.41500
H1211       H  0.47975392  0.18726349  0.83579722     0.41100
H1212       H  0.48017871  0.19601066  0.87161645     0.36000
C1213       C  0.72815793  0.22787048  0.82967118    -0.25700
C1214       C  0.70904385  0.22099651  0.85537875    -0.13800
C1215       C  0.71441677  0.24522696  0.87902214     0.36900
C1216       C  0.74245316  0.27236389  0.87770653    -0.25100
C1217       C  0.76516755  0.27545014  0.85341445    -0.14400
C1218       C  0.75627880  0.25467383  0.82854885     0.37900
N1219       N  0.77686432  0.25942823  0.80252584    -0.88600
H1220       H  0.72345550  0.21042030  0.81096194     0.19100
H1221       H  0.74861066  0.28890941  0.89665440     0.19100
N1222       N  0.69340018  0.24057684  0.90496626    -0.87700
H1223       H  0.75824520  0.26641556  0.78608414     0.36400
H1224       H  0.78878113  0.23402338  0.79719512     0.41500
H1225       H  0.66573146  0.24624641  0.89994809     0.41100
H1226       H  0.70160840  0.25997518  0.92053676     0.36000
C1227       C  0.63193843  0.89337128  0.76728643    -0.25700
C1228       C  0.66551109  0.89115857  0.78267670    -0.13800
C1229       C  0.69916026  0.89431964  0.76723267     0.36900
C1230       C  0.69841676  0.89585681  0.73694387    -0.25100
C1231       C  0.66473275  0.89416586  0.72164995    -0.14400
C1232       C  0.63131133  0.89516209  0.73710973     0.37900
N1233       N  0.59651980  0.89673597  0.72210583    -0.88600
H1234       H  0.60585541  0.89191943  0.77866707     0.19100
H1235       H  0.72434881  0.89528459  0.72533955     0.19100
N1236       N  0.73446745  0.89336958  0.78144765    -0.87700
H1237       H  0.58258552  0.92038864  0.72903937     0.36400
H1238       H  0.58076719  0.87354736  0.72792076     0.41500
H1239       H  0.73598536  0.91554535  0.79591742     0.41100
H1240       H  0.73654725  0.86855442  0.79290305     0.36000
C1241       C  0.48566439  0.89459290  0.88339739    -0.25700
C1242       C  0.46521574  0.86135902  0.88521374    -0.13800
C1243       C  0.48447865  0.82767466  0.88886228     0.36900
C1244       C  0.52329106  0.82780084  0.88913577    -0.25100
C1245       C  0.54386021  0.86057542  0.88556305    -0.14400
C1246       C  0.52478584  0.89459515  0.88321757     0.37900
N1247       N  0.54485755  0.92880569  0.87968232    -0.88600
H1248       H  0.47111629  0.92051115  0.88064327     0.19100
H1249       H  0.53758185  0.80166734  0.89143538     0.19100
N1250       N  0.46469936  0.79315067  0.89162447    -0.87700
H1251       H  0.52664678  0.95118415  0.87918823     0.36400
H1252       H  0.55742328  0.92806887  0.85947197     0.41500
H1253       H  0.45028053  0.79399039  0.91106024     0.41100
H1254       H  0.48300486  0.77090052  0.89313176     0.36000
C1255       C  0.92016693  0.69083950  0.72918860    -0.25700
C1256       C  0.92900469  0.65801188  0.71454727    -0.13800
C1257       C  0.94279565  0.62790450  0.73070361     0.36900
C1258       C  0.94332188  0.62964283  0.76099511    -0.25100
C1259       C  0.92965706  0.66073271  0.77571039    -0.14400
C1260       C  0.91993519  0.69234077  0.75944586     0.37900
N1261       N  0.90724088  0.72526402  0.77339279    -0.88600
H1262       H  0.91012784  0.71456563  0.71726342     0.19100
H1263       H  0.95168932  0.60530109  0.77294977     0.19100
N1264       N  0.95434710  0.59466457  0.71660381    -0.87700
H1265       H  0.88024289  0.73048962  0.76622776     0.36400
H1266       H  0.92411873  0.74733572  0.76692322     0.41500
H1267       H  0.93780597  0.57280909  0.72397231     0.41100
H1268       H  0.98166296  0.58940435  0.72287880     0.36000
C1269       C  0.90926833  0.46238545  0.87810550    -0.25700
C1270       C  0.88056580  0.44316311  0.86374779    -0.13800
C1271       C  0.85392095  0.46364785  0.84810457     0.36900
C1272       C  0.85548206  0.50254664  0.84848046    -0.25100
C1273       C  0.88353860  0.52189518  0.86346450    -0.14400
C1274       C  0.91107827  0.50141128  0.87820833     0.37900
N1275       N  0.94067921  0.52003681  0.89337036    -0.88600
H1276       H  0.93010268  0.44691546  0.88981336     0.19100
H1277       H  0.83465055  0.51784811  0.83663765     0.19100
N1278       N  0.82554855  0.44504026  0.83154850    -0.87700
H1279       H  0.95953583  0.50092247  0.90173011     0.36400
H1280       H  0.92908908  0.53347911  0.91107862     0.41500
H1281       H  0.83860940  0.43106885  0.81473203     0.41100
H1282       H  0.80771459  0.46413581  0.82189579     0.36000
C1283       C  0.74479773  0.68641035  0.87076654    -0.25700
C1284       C  0.77019532  0.68872926  0.84796668    -0.13800
C1285       C  0.76314064  0.71354482  0.82522648     0.36900
C1286       C  0.73422545  0.73886283  0.82751074    -0.25100
C1287       C  0.71222069  0.74023390  0.85223877    -0.14400
C1288       C  0.71551897  0.71191627  0.87305449     0.37900
N1289       N  0.69125890  0.71092411  0.89745306    -0.88600
H1290       H  0.74945323  0.66668617  0.88795893     0.19100
H1291       H  0.73086260  0.75949314  0.81076254     0.19100
N1292       N  0.78641928  0.71446355  0.80037144    -0.87700
H1293       H  0.69826967  0.68906886  0.91115953     0.36400
H1294       H  0.66457094  0.70512298  0.88970241     0.41500
H1295       H  0.79791618  0.74103840  0.79871805     0.41100
H1296       H  0.76977645  0.70981248  0.78217922     0.36000
loop_ 
_geom_bond_atom_site_label_1 
_geom_bond_atom_site_label_2 
_geom_bond_distance 
_geom_bond_site_symmetry_2 
_ccdc_geom_bond_type 
O1            C4   1.264       .  A
O1           Cd6   2.470   1_554  S
C2           O11   1.265       .  A
C2            O7   1.264       .  A
C2          C147   1.469       .  S
O3          C657   1.266       .  A
O3         Cd654   2.530       .  S
C4           O12   1.265       .  A
C4          C275   1.476       .  S
C5          O658   1.269       .  A
C5          O656   1.263       .  A
C5          C670   1.458   1_565  S
Cd6          O12   2.520   1_556  S
Cd6          O10   2.517       .  S
Cd6           O8   2.386       .  S
Cd6         O651   2.520   1_556  S
Cd6         O661   2.475       .  S
Cd6         O659   2.501       .  S
Cd6         O655   2.459       .  S
O7         Cd654   2.456       .  S
O8          C653   1.262       .  A
C9          O651   1.267   1_556  A
C9          O661   1.263       .  A
C9          C696   1.478       .  S
O10         C653   1.270       .  A
O11        Cd654   2.499       .  S
O13         C657   1.262       .  A
O13        Cd654   2.466       .  S
O14          C17   1.266       .  A
O14         Cd19   2.490   1_554  S
C15          O24   1.266       .  A
C15          O20   1.265       .  A
C15         C171   1.472       .  S
O16          C22   1.269       .  A
O16         Cd19   2.507       .  S
C17          O25   1.264       .  A
C17         C301   1.478       .  S
C18         O671   1.266       .  A
C18         O669   1.264       .  A
C18         C848   1.471       .  S
Cd19         O25   2.513   1_556  S
Cd19         O23   2.520       .  S
Cd19         O21   2.462       .  S
Cd19        O674   2.387       .  S
Cd19        O672   2.521       .  S
Cd19        O668   2.475       .  S
O20        Cd667   2.463       .  S
O21         C666   1.263       .  A
C22         O674   1.264       .  A
C22         C653   1.462   1_545  S
O23         C666   1.266       .  A
O24        Cd667   2.502       .  S
O26         C670   1.261       .  A
O26        Cd667   2.379       .  S
O27          C30   1.264       .  A
O27        Cd680   2.463       .  S
C28          O37   1.264       .  A
C28          O33   1.266       .  A
C28         C210   1.472       .  S
O29         C683   1.270       .  A
O29         Cd32   2.509       .  S
C30          O38   1.265       .  A
C30          C80   1.472       .  S
C31         O684   1.266   1_556  A
C31         O682   1.263       .  A
C31          C61   1.477   1_556  S
Cd32         O39   2.386   1_556  S
Cd32         O37   2.490   1_556  S
Cd32         O33   2.474   1_556  S
Cd32        O675   2.469       .  S
Cd32        O686   2.503       .  S
Cd32        O684   2.527   1_556  S
Cd32        O682   2.474       .  S
O34         C679   1.262       .  A
O34        Cd680   2.459       .  S
C35         O677   1.269       .  A
C35         O687   1.263       .  A
C35         C692   1.464   1_655  S
O36         C679   1.266       .  A
O36        Cd680   2.535       .  S
O38        Cd680   2.511       .  S
O39         C683   1.263   1_554  A
O40          C43   1.265       .  A
O40        Cd693   2.476       .  S
C41          O50   1.265       .  A
C41          O46   1.265       .  A
C41         C262   1.476       .  S
O42         C696   1.266       .  A
O42         Cd45   2.520       .  S
C43          O51   1.265       .  A
C43         C134   1.475       .  S
C44          O49   1.269       .  A
C44         O695   1.263   1_556  A
C44         C683   1.463   1_455  S
Cd45         O52   2.481       .  S
Cd45         O50   2.508   1_556  S
Cd45         O46   2.482   1_556  S
Cd45         O49   2.516       .  S
Cd45        O688   2.485       .  S
Cd45        O699   2.508       .  S
Cd45        O695   2.394   1_556  S
O47         C692   1.263       .  A
O47        Cd693   2.404       .  S
C48         O690   1.266       .  A
C48         O700   1.262       .  A
C48         C657   1.478       .  S
O51        Cd693   2.504       .  S
O52         C696   1.264       .  A
O53          C56   1.265       .  A
O53        Cd706   2.471       .  S
C54          O63   1.265       .  A
C54          O59   1.263       .  A
C54         C223   1.475       .  S
O55          C61   1.266       .  A
O55         Cd58   2.530       .  S
C56          O64   1.265       .  A
C56          C95   1.471       .  S
C57          O62   1.269       .  A
C57         O708   1.263   1_554  A
C57         C722   1.464   1_565  S
Cd58         O65   2.469   1_554  S
Cd58         O63   2.529       .  S
Cd58         O59   2.469       .  S
Cd58         O62   2.509       .  S
Cd58        O701   2.459   1_554  S
Cd58        O712   2.502   1_554  S
Cd58        O708   2.400   1_554  S
O60         C705   1.262       .  A
O60        Cd706   2.388       .  S
C61          O65   1.262   1_554  A
O64        Cd706   2.490       .  S
O66          C69   1.265       .  A
O66        Cd719   2.483       .  S
C67          O76   1.264       .  A
C67          O72   1.265       .  A
C67         C238   1.473       .  S
O68         C722   1.269       .  A
O68         Cd71   2.512       .  S
C69          O77   1.266       .  A
C69         C106   1.476       .  S
C70         O723   1.267       .  A
C70         O721   1.263       .  A
C70         C835   1.483       .  S
Cd71         O78   2.405   1_554  S
Cd71         O76   2.511       .  S
Cd71         O72   2.472       .  S
Cd71        O714   2.467   1_554  S
Cd71        O725   2.499   1_554  S
Cd71        O723   2.536       .  S
Cd71        O721   2.490       .  S
O73         C718   1.263       .  A
O73        Cd719   2.470       .  S
C74         O716   1.269       .  A
C74         O726   1.262       .  A
C74         C705   1.461   1_545  S
O75         C718   1.266       .  A
O75        Cd719   2.522       .  S
O77        Cd719   2.505       .  S
O78         C722   1.262   1_556  A
O79          C82   1.266       .  A
O79         Cd84   2.470       .  S
C80          O89   1.259       .  A
C80          O85   1.267       .  A
O81          C87   1.263       .  A
O81         Cd84   2.463       .  S
C82          O90   1.266       .  A
C82         C611   1.491       .  S
C83          O88   1.266       .  A
C83          O86   1.270       .  A
C83         C625   1.487       .  S
Cd84         O91   2.427       .  S
Cd84         O90   2.484       .  S
Cd84         O89   2.451       .  S
Cd84         O85   2.525       .  S
Cd84         O88   2.424       .  S
Cd84         O86   2.489       .  S
C87          O91   1.262       .  A
C87         C636   1.473       .  S
O92          C95   1.266       .  A
O92         Cd97   2.503       .  S
C93         O102   1.266       .  A
C93          O98   1.264       .  A
C93         C580   1.492       .  S
O94         C100   1.263       .  A
O94         Cd97   2.456       .  S
C95         O103   1.262       .  A
C96         O101   1.267       .  A
C96          O99   1.267       .  A
C96         C597   1.485       .  S
Cd97        O104   2.443       .  S
Cd97        O103   2.464       .  S
Cd97        O102   2.477       .  S
Cd97         O98   2.460       .  S
Cd97        O101   2.442       .  S
Cd97         O99   2.451       .  S
C100        O104   1.263       .  A
C100        C639   1.476       .  S
O105        C108   1.262       .  A
O105       Cd110   2.441       .  S
C106        O115   1.264       .  A
C106        O111   1.265       .  A
O107        C113   1.264       .  A
O107       Cd110   2.452       .  S
C108        O116   1.268       .  A
C108        C541   1.492       .  S
C109        O114   1.265       .  A
C109        O112   1.269       .  A
C109        C555   1.485       .  S
Cd110       O117   2.442       .  S
Cd110       O116   2.495       .  S
Cd110       O115   2.482       .  S
Cd110       O111   2.503       .  S
Cd110       O114   2.422       .  S
Cd110       O112   2.490       .  S
C113        O117   1.263       .  A
C113        C566   1.479       .  S
O118        C121   1.264       .  A
O118       Cd123   2.505       .  S
C119        O128   1.266       .  A
C119        O124   1.265       .  A
C119        C524   1.490       .  S
O120        C126   1.264       .  A
O120       Cd123   2.460       .  S
C121        O129   1.261       .  A
C121        C184   1.471       .  S
C122        O127   1.266       .  A
C122        O125   1.268       .  A
C122        C622   1.484       .  S
Cd123       O130   2.460       .  S
Cd123       O129   2.476       .  S
Cd123       O128   2.485       .  S
Cd123       O124   2.464       .  S
Cd123       O127   2.434       .  S
Cd123       O125   2.455       .  S
C126        O130   1.263       .  A
C126        C569   1.480       .  S
O131        C134   1.266       .  A
O131       Cd136   2.522       .  S
C132        O141   1.267       .  A
C132        O137   1.266       .  A
C132        C482   1.494       .  S
O133        C139   1.263       .  A
O133       Cd136   2.469       .  S
C134        O142   1.261       .  A
C135        O140   1.264       .  A
C135        O138   1.270       .  A
C135        C496   1.489       .  S
Cd136       O143   2.456       .  S
Cd136       O142   2.470       .  S
Cd136       O141   2.495       .  S
Cd136       O137   2.457       .  S
Cd136       O140   2.412       .  S
Cd136       O138   2.495       .  S
C139        O143   1.263       .  A
C139        C513   1.482       .  S
O144        C147   1.265       .  A
O144       Cd149   2.513       .  S
C145        O154   1.266       .  A
C145        O150   1.265       .  A
C145        C468   1.492       .  S
O146        C152   1.265       .  A
O146       Cd149   2.412       .  S
C147        O155   1.260       .  A
C148        O153   1.264       .  A
C148        O151   1.261       .  A
C148        C510   1.477       .  S
Cd149       O156   2.492       .  S
Cd149       O155   2.459       .  S
Cd149       O154   2.462       .  S
Cd149       O150   2.476       .  S
Cd149       O153   2.489       .  S
Cd149       O151   2.435       .  S
C152        O156   1.270       .  A
C152        C594   1.486       .  S
O157        C160   1.265       .  A
O157       Cd162   2.453       .  S
C158        O167   1.260       .  A
C158        O163   1.267       .  A
C158        C199   1.474       .  S
O159        C165   1.266       .  A
O159       Cd162   2.460       .  S
C160        O168   1.266       .  A
C160        C443   1.491       .  S
C161        O166   1.267       .  A
C161        O164   1.268       .  A
C161        C499   1.489       .  S
Cd162       O169   2.427       .  S
Cd162       O168   2.503       .  S
Cd162       O167   2.473       .  S
Cd162       O163   2.515       .  S
Cd162       O166   2.437       .  S
Cd162       O164   2.475       .  S
C165        O169   1.263       .  A
C165        C454   1.472       .  S
O170        C173   1.267       .  A
O170       Cd175   2.470       .  S
C171        O180   1.262       .  A
C171        O176   1.266       .  A
O172        C178   1.266       .  A
O172       Cd175   2.443       .  S
C173        O181   1.266       .  A
C173        C426   1.494       .  S
C174        O179   1.263       .  A
C174        O177   1.263       .  A
C174        C457   1.476       .  S
Cd175       O182   2.445       .  S
Cd175       O181   2.490       .  S
Cd175       O180   2.466       .  S
Cd175       O176   2.513       .  S
Cd175       O179   2.463       .  S
Cd175       O177   2.447       .  S
C178        O182   1.267       .  A
C178        C552   1.483       .  S
O183        C186   1.266       .  A
O183       Cd188   2.468       .  S
C184        O193   1.265       .  A
C184        O189   1.265       .  A
O185        C191   1.269       .  A
O185       Cd188   2.510   1_556  S
C186        O194   1.266       .  A
C186        C249   1.475       .  S
C187        O840   1.267       .  A
C187        O838   1.263       .  A
C187        C718   1.475       .  S
Cd188       O194   2.511       .  S
Cd188       O192   2.532       .  S
Cd188       O190   2.489       .  S
Cd188       O843   2.411       .  S
Cd188       O841   2.498   1_554  S
Cd188       O837   2.470   1_554  S
O189       Cd836   2.470       .  S
O190        C835   1.265       .  A
C191        O843   1.262   1_556  A
C191        C852   1.463   1_655  S
O192        C835   1.268       .  A
O193       Cd836   2.492       .  S
O195        C839   1.262       .  A
O195       Cd836   2.398       .  S
O196        C199   1.267       .  A
O196       Cd849   2.486       .  S
C197        O206   1.264       .  A
C197        O202   1.265       .  A
C197        C290   1.471       .  S
O198        C852   1.269       .  A
O198       Cd201   2.498       .  S
C199        O207   1.264       .  A
C200        O853   1.266       .  A
C200        O851   1.263       .  A
C200        C666   1.475       .  S
Cd201       O208   2.400   1_556  S
Cd201       O206   2.489   1_556  S
Cd201       O202   2.472   1_556  S
Cd201       O844   2.473       .  S
Cd201       O855   2.489       .  S
Cd201       O853   2.523       .  S
Cd201       O851   2.469       .  S
O203        C848   1.262       .  A
O203       Cd849   2.450       .  S
C204        O846   1.270       .  A
C204        O856   1.264       .  A
C204        C839   1.461   1_455  S
O205        C848   1.267       .  A
O205       Cd849   2.511       .  S
O207       Cd849   2.489       .  S
O208        C852   1.264   1_554  A
O209        C212   1.267       .  A
O209       Cd214   2.479       .  S
C210        O219   1.260       .  A
C210        O215   1.268       .  A
O211        C217   1.265       .  A
O211       Cd214   2.435       .  S
C212        O220   1.267       .  A
C212        C608   1.493       .  S
C213        O218   1.264       .  A
C213        O216   1.263       .  A
C213        C412   1.484       .  S
Cd214       O221   2.496       .  S
Cd214       O220   2.479       .  S
Cd214       O219   2.459       .  S
Cd214       O215   2.515       .  S
Cd214       O218   2.481       .  S
Cd214       O216   2.452       .  S
C217        O221   1.268       .  A
C217        C401   1.488       .  S
O222        C225   1.266       .  A
O222       Cd227   2.445       .  S
C223        O232   1.261       .  A
C223        O228   1.266       .  A
O224        C230   1.265       .  A
O224       Cd227   2.473       .  S
C225        O233   1.265       .  A
C225        C583   1.486       .  S
C226        O231   1.268       .  A
C226        O229   1.269       .  A
C226        C387   1.487       .  S
Cd227       O234   2.444       .  S
Cd227       O233   2.479       .  S
Cd227       O232   2.461       .  S
Cd227       O228   2.524       .  S
Cd227       O231   2.448       .  S
Cd227       O229   2.468       .  S
C230        O234   1.262       .  A
C230        C415   1.481       .  S
O235        C238   1.267       .  A
O235       Cd240   2.522       .  S
C236        O245   1.267       .  A
C236        O241   1.267       .  A
C236        C538   1.491       .  S
O237        C243   1.265       .  A
O237       Cd240   2.469       .  S
C238        O246   1.260       .  A
C239        O244   1.266       .  A
C239        O242   1.267       .  A
C239        C356   1.486       .  S
Cd240       O247   2.419       .  S
Cd240       O246   2.457       .  S
Cd240       O245   2.462       .  S
Cd240       O241   2.475       .  S
Cd240       O244   2.436       .  S
Cd240       O242   2.475       .  S
C243        O247   1.261       .  A
C243        C370   1.476       .  S
O248        C251   1.266       .  A
O248       Cd253   2.497       .  S
C249        O258   1.259       .  A
C249        O254   1.266       .  A
O250        C256   1.262       .  A
O250       Cd253   2.489       .  S
C251        O259   1.266       .  A
C251        C527   1.494       .  S
C252        O257   1.268       .  A
C252        O255   1.269       .  A
C252        C398   1.487       .  S
Cd253       O260   2.448       .  S
Cd253       O259   2.483       .  S
Cd253       O258   2.465       .  S
Cd253       O254   2.534       .  S
Cd253       O257   2.435       .  S
Cd253       O255   2.467       .  S
C256        O260   1.262       .  A
C256        C373   1.479       .  S
O261        C264   1.265       .  A
O261       Cd266   2.440       .  S
C262        O271   1.262       .  A
C262        O267   1.266       .  A
O263        C269   1.264       .  A
O263       Cd266   2.449       .  S
C264        O272   1.267       .  A
C264        C485   1.493       .  S
C265        O270   1.266       .  A
C265        O268   1.266       .  A
C265        C331   1.484       .  S
Cd266       O273   2.452       .  S
Cd266       O272   2.501       .  S
Cd266       O271   2.477       .  S
Cd266       O267   2.517       .  S
Cd266       O270   2.448       .  S
Cd266       O268   2.461       .  S
C269        O273   1.263       .  A
C269        C342   1.480       .  S
O274        C277   1.266       .  A
O274       Cd279   2.467       .  S
C275        O284   1.260       .  A
C275        O280   1.266       .  A
O276        C282   1.266       .  A
O276       Cd279   2.430       .  S
C277        O285   1.266       .  A
C277        C471   1.491       .  S
C278        O283   1.264       .  A
C278        O281   1.262       .  A
C278        C345   1.476       .  S
Cd279       O286   2.474       .  S
Cd279       O285   2.487       .  S
Cd279       O284   2.462       .  S
Cd279       O280   2.537       .  S
Cd279       O283   2.473       .  S
Cd279       O281   2.441       .  S
C282        O286   1.270       .  A
C282        C384   1.486       .  S
O287        C290   1.266       .  A
O287       Cd292   2.508       .  S
C288        O297   1.267       .  A
C288        O293   1.265       .  A
C288        C440   1.491       .  S
O289        C295   1.262       .  A
O289       Cd292   2.441       .  S
C290        O298   1.261       .  A
C291        O296   1.265       .  A
C291        O294   1.267       .  A
C291        C328   1.485       .  S
Cd292       O299   2.485       .  S
Cd292       O298   2.461       .  S
Cd292       O297   2.500       .  S
Cd292       O293   2.455       .  S
Cd292       O296   2.446       .  S
Cd292       O294   2.472       .  S
C295        O299   1.264       .  A
C295        C317   1.479       .  S
O300        C303   1.265       .  A
O300       Cd305   2.455       .  S
C301        O310   1.260       .  A
C301        O306   1.267       .  A
O302        C308   1.265       .  A
O302       Cd305   2.494       .  S
C303        O311   1.269       .  A
C303        C429   1.498       .  S
C304        O309   1.265       .  A
C304        O307   1.269       .  A
C304        C359   1.487       .  S
Cd305       O312   2.452       .  S
Cd305       O311   2.528       .  S
Cd305       O310   2.474       .  S
Cd305       O306   2.533       .  S
Cd305       O309   2.433       .  S
Cd305       O307   2.490       .  S
C308        O312   1.261       .  A
C308        C314   1.485       .  S
C313        C314   1.405       .  A
C313        C318   1.406       .  A
C313        H320   1.083       .  S
C314        C315   1.413       .  A
C315        C316   1.402       .  A
C315        N322   1.433       .  S
C316        C317   1.403       .  A
C316        H321   1.084       .  S
C317        C318   1.412       .  A
C318        N319   1.438       .  S
N319        H323   1.046       .  S
N319        H324   1.046       .  S
N322        H325   1.046       .  S
N322        H326   1.046       .  S
C327        C328   1.405       .  A
C327        C332   1.406       .  A
C327        H334   1.083       .  S
C328        C329   1.414       .  A
C329        C330   1.404       .  A
C329        N336   1.438       .  S
C330        C331   1.404       .  A
C330        H335   1.083       .  S
C331        C332   1.414       .  A
C332        N333   1.438       .  S
N333        H337   1.046       .  S
N333        H338   1.046       .  S
N336        H339   1.046       .  S
N336        H340   1.046       .  S
C341        C342   1.406       .  A
C341        C346   1.400       .  A
C341        H348   1.084       .  S
C342        C343   1.413       .  A
C343        C344   1.404       .  A
C343        N350   1.437       .  S
C344        C345   1.403       .  A
C344        H349   1.083       .  S
C345        C346   1.409       .  A
C346        N347   1.433       .  S
N347        H351   1.046       .  S
N347        H352   1.046       .  S
N350        H353   1.046       .  S
N350        H354   1.046       .  S
C355        C356   1.404       .  A
C355        C360   1.400       .  A
C355        H362   1.084       .  S
C356        C357   1.413       .  A
C357        C358   1.407       .  A
C357        N364   1.432       .  S
C358        C359   1.406       .  A
C358        H363   1.084       .  S
C359        C360   1.412       .  A
C360        N361   1.433       .  S
N361        H365   1.046       .  S
N361        H366   1.046       .  S
N364        H367   1.045       .  S
N364        H368   1.046       .  S
C369        C370   1.404       .  A
C369        C374   1.401       .  A
C369        H376   1.084       .  S
C370        C371   1.413       .  A
C371        C372   1.402       .  A
C371        N378   1.439       .  S
C372        C373   1.404       .  A
C372        H377   1.084       .  S
C373        C374   1.411       .  A
C374        N375   1.432       .  S
N375        H379   1.046       .  S
N375        H380   1.046       .  S
N378        H381   1.045       .  S
N378        H382   1.046       .  S
C383        C384   1.405       .  A
C383        C388   1.405       .  A
C383        H390   1.084       .  S
C384        C385   1.413       .  A
C385        C386   1.402       .  A
C385        N392   1.433       .  S
C386        C387   1.405       .  A
C386        H391   1.084       .  S
C387        C388   1.413       .  A
C388        N389   1.432       .  S
N389        H393   1.046       .  S
N389        H394   1.045       .  S
N392        H395   1.046       .  S
N392        H396   1.046       .  S
C397        C398   1.404       .  A
C397        C402   1.403       .  A
C397        H404   1.083       .  S
C398        C399   1.415       .  A
C399        C400   1.410       .  A
C399        N406   1.438       .  S
C400        C401   1.407       .  A
C400        H405   1.083       .  S
C401        C402   1.414       .  A
C402        N403   1.438       .  S
N403        H407   1.046       .  S
N403        H408   1.046       .  S
N406        H409   1.046       .  S
N406        H410   1.046       .  S
C411        C412   1.405       .  A
C411        C416   1.401       .  A
C411        H418   1.084       .  S
C412        C413   1.413       .  A
C413        C414   1.403       .  A
C413        N420   1.432       .  S
C414        C415   1.404       .  A
C414        H419   1.084       .  S
C415        C416   1.411       .  A
C416        N417   1.433       .  S
N417        H421   1.046       .  S
N417        H422   1.045       .  S
N420        H423   1.046       .  S
N420        H424   1.045       .  S
C425        C426   1.404       .  A
C425        C430   1.407       .  A
C425        H432   1.083       .  S
C426        C427   1.414       .  A
C427        C428   1.411       .  A
C427        N434   1.432       .  S
C428        C429   1.409       .  A
C428        H433   1.084       .  S
C429        C430   1.417       .  A
C430        N431   1.437       .  S
N431        H435   1.046       .  S
N431        H436   1.045       .  S
N434        H437   1.046       .  S
N434        H438   1.046   1_545  S
C439        C440   1.407       .  A
C439        C444   1.408       .  A
C439        H446   1.084       .  S
C440        C441   1.414       .  A
C441        C442   1.406       .  A
C441        N448   1.438       .  S
C442        C443   1.405       .  A
C442        H447   1.083       .  S
C443        C444   1.413       .  A
C444        N445   1.432       .  S
N445        H449   1.045       .  S
N445        H450   1.046       .  S
N448        H451   1.045       .  S
N448        H452   1.046       .  S
C453        C454   1.403       .  A
C453        C458   1.404       .  A
C453        H460   1.084       .  S
C454        C455   1.409       .  A
C455        C456   1.398       .  A
C455        N462   1.433       .  S
C456        C457   1.404       .  A
C456        H461   1.084       .  S
C457        C458   1.412       .  A
C458        N459   1.437       .  S
N459        H463   1.046       .  S
N459        H464   1.045       .  S
N462        H465   1.046       .  S
N462        H466   1.046       .  S
C467        C468   1.407       .  A
C467        C472   1.405       .  A
C467        H474   1.084       .  S
C468        C469   1.420       .  A
C469        C470   1.401       .  A
C469        N476   1.432       .  S
C470        C471   1.405       .  A
C470        H475   1.084       .  S
C471        C472   1.413       .  A
C472        N473   1.432       .  S
N473        H477   1.046       .  S
N473        H478   1.046       .  S
N476        H479   1.045       .  S
N476        H480   1.045       .  S
C481        C482   1.408       .  A
C481        C486   1.406       .  A
C481        H488   1.084       .  S
C482        C483   1.415       .  A
C483        C484   1.406       .  A
C483        N490   1.438       .  S
C484        C485   1.405       .  A
C484        H489   1.083       .  S
C485        C486   1.419       .  A
C486        N487   1.432       .  S
N487        H491   1.045       .  S
N487        H492   1.045       .  S
N490        H493   1.046       .  S
N490        H494   1.046       .  S
C495        C496   1.407       .  A
C495        C500   1.410       .  A
C495        H502   1.083       .  S
C496        C497   1.416       .  A
C497        C498   1.401       .  A
C497        N504   1.439       .  S
C498        C499   1.403       .  A
C498        H503   1.083       .  S
C499        C500   1.416       .  A
C500        N501   1.438       .  S
N501        H505   1.046       .  S
N501        H506   1.045       .  S
N504        H507   1.046       .  S
N504        H508   1.046       .  S
C509        C510   1.403       .  A
C509        C514   1.405       .  A
C509        H516   1.083       .  S
C510        C511   1.411       .  A
C511        C512   1.402       .  A
C511        N518   1.438       .  S
C512        C513   1.405       .  A
C512        H517   1.083       .  S
C513        C514   1.414       .  A
C514        N515   1.437       .  S
N515        H519   1.046       .  S
N515        H520   1.046       .  S
N518        H521   1.046       .  S
N518        H522   1.046       .  S
C523        C524   1.406       .  A
C523        C528   1.410       .  A
C523        H530   1.083       .  S
C524        C525   1.413       .  A
C525        C526   1.407       .  A
C525        N532   1.438       .  S
C526        C527   1.406       .  A
C526        H531   1.083       .  S
C527        C528   1.415       .  A
C528        N529   1.437       .  S
N529        H533   1.046       .  S
N529        H534   1.046       .  S
N532        H535   1.046       .  S
N532        H536   1.046       .  S
C537        C538   1.405       .  A
C537        C542   1.401       .  A
C537        H544   1.084       .  S
C538        C539   1.414       .  A
C539        C540   1.409       .  A
C539        N546   1.437       .  S
C540        C541   1.407       .  A
C540        H545   1.083       .  S
C541        C542   1.421       .  A
C542        N543   1.433       .  S
N543        H547   1.044       .  S
N543        H548   1.046       .  S
N546        H549   1.045       .  S
N546        H550   1.046       .  S
C551        C552   1.406       .  A
C551        C556   1.407       .  A
C551        H558   1.083       .  S
C552        C553   1.410       .  A
C553        C554   1.399       .  A
C553        N560   1.433       .  S
C554        C555   1.406       .  A
C554        H559   1.084       .  S
C555        C556   1.415       .  A
C556        N557   1.438       .  S
N557        H561   1.046       .  S
N557        H562   1.046       .  S
N560        H563   1.046       .  S
N560        H564   1.046       .  S
C565        C566   1.405       .  A
C565        C570   1.400       .  A
C565        H572   1.084       .  S
C566        C567   1.412       .  A
C567        C568   1.404       .  A
C567        N574   1.438       .  S
C568        C569   1.404       .  A
C568        H573   1.083       .  S
C569        C570   1.410       .  A
C570        N571   1.433       .  S
N571        H575   1.046       .  S
N571        H576   1.046       .  S
N574        H577   1.045       .  S
N574        H578   1.046       .  S
C579        C580   1.409       .  A
C579        C584   1.406       .  A
C579        H586   1.084       .  S
C580        C581   1.420       .  A
C581        C582   1.398       .  A
C581        N588   1.432       .  S
C582        C583   1.404       .  A
C582        H587   1.084       .  S
C583        C584   1.411       .  A
C584        N585   1.432       .  S
N585        H589   1.045       .  S
N585        H590   1.046       .  S
N588        H591   1.045       .  S
N588        H592   1.045       .  S
C593        C594   1.405       .  A
C593        C598   1.409       .  A
C593        H600   1.083       .  S
C594        C595   1.415       .  A
C595        C596   1.402       .  A
C595        N602   1.438       .  S
C596        C597   1.404       .  A
C596        H601   1.083       .  S
C597        C598   1.416       .  A
C598        N599   1.438       .  S
N599        H603   1.046       .  S
N599        H604   1.046       .  S
N602        H605   1.046       .  S
N602        H606   1.046       .  S
C607        C608   1.407       .  A
C607        C612   1.408       .  A
C607        H614   1.084       .  S
C608        C609   1.414       .  A
C609        C610   1.405       .  A
C609        N616   1.432       .  S
C610        C611   1.405       .  A
C610        H615   1.084       .  S
C611        C612   1.413       .  A
C612        N613   1.432       .  S
N613        H617   1.046       .  S
N613        H618   1.046       .  S
N616        H619   1.046       .  S
N616        H620   1.045       .  S
C621        C622   1.406       .  A
C621        C626   1.407       .  A
C621        H628   1.083       .  S
C622        C623   1.414       .  A
C623        C624   1.402       .  A
C623        N630   1.439       .  S
C624        C625   1.406       .  A
C624        H629   1.083       .  S
C625        C626   1.414       .  A
C626        N627   1.437       .  S
N627        H631   1.046       .  S
N627        H632   1.046       .  S
N630        H633   1.046       .  S
N630        H634   1.046       .  S
C635        C636   1.404       .  A
C635        C640   1.404       .  A
C635        H642   1.084       .  S
C636        C637   1.408       .  A
C637        C638   1.397       .  A
C637        N644   1.433       .  S
C638        C639   1.404       .  A
C638        H643   1.084       .  S
C639        C640   1.412       .  A
C640        N641   1.438       .  S
N641        H645   1.046       .  S
N641        H646   1.045       .  S
N644        H647   1.046       .  S
N644        H648   1.046       .  S
O649        C652   1.264       .  A
O649       Cd654   2.463       .  S
C650        O659   1.266       .  A
C650        O655   1.266       .  A
C650        C795   1.473       .  S
C652        O660   1.265       .  A
C652        C923   1.470       .  S
Cd654       O660   2.504       .  S
Cd654       O658   2.499       .  S
Cd654       O656   2.386       .  S
O662        C665   1.266       .  A
O662       Cd667   2.466       .  S
C663        O672   1.265       .  A
C663        O668   1.266       .  A
C663        C819   1.477       .  S
O664        C670   1.268       .  A
O664       Cd667   2.503       .  S
C665        O673   1.265       .  A
C665        C949   1.470       .  S
Cd667       O673   2.492       .  S
Cd667       O671   2.511       .  S
Cd667       O669   2.458       .  S
O675        C678   1.265       .  A
C676        O685   1.265       .  A
C676        O681   1.265       .  A
C676        C858   1.474       .  S
O677       Cd680   2.505       .  S
C678        O686   1.264       .  A
C678        C728   1.472       .  S
C679        C709   1.474       .  S
Cd680       O687   2.405       .  S
Cd680       O685   2.498       .  S
Cd680       O681   2.479       .  S
O688        C691   1.265       .  A
C689        O698   1.265       .  A
C689        O694   1.264       .  A
C689        C910   1.472       .  S
O690       Cd693   2.539       .  S
C691        O699   1.264       .  A
C691        C782   1.475       .  S
C692        O697   1.270       .  A
Cd693       O700   2.474       .  S
Cd693       O698   2.511       .  S
Cd693       O694   2.467       .  S
Cd693       O697   2.508       .  S
O701        C704   1.266       .  A
C702        O711   1.265       .  A
C702        O707   1.265       .  A
C702        C871   1.476       .  S
O703        C709   1.266       .  A
O703       Cd706   2.529       .  S
C704        O712   1.266       .  A
C704        C743   1.473       .  S
C705        O710   1.269       .  A
Cd706       O713   2.454       .  S
Cd706       O711   2.518       .  S
Cd706       O707   2.470       .  S
Cd706       O710   2.516       .  S
C709        O713   1.262       .  A
O714        C717   1.265       .  A
C715        O724   1.263       .  A
C715        O720   1.266       .  A
C715        C886   1.476       .  S
O716       Cd719   2.514       .  S
C717        O725   1.266       .  A
C717        C754   1.472       .  S
Cd719       O726   2.386       .  S
Cd719       O724   2.508       .  S
Cd719       O720   2.486       .  S
O727        C730   1.266       .  A
O727       Cd732   2.500       .  S
C728        O737   1.259       .  A
C728        O733   1.268       .  A
O729        C735   1.265       .  A
O729       Cd732   2.492       .  S
C730        O738   1.265       .  A
C730       C1259   1.494       .  S
C731        O736   1.268       .  A
C731        O734   1.269       .  A
C731       C1273   1.492       .  S
Cd732       O739   2.436       .  S
Cd732       O738   2.475       .  S
Cd732       O737   2.446       .  S
Cd732       O733   2.525       .  S
Cd732       O736   2.444       .  S
Cd732       O734   2.478       .  S
C735        O739   1.263       .  A
C735       C1284   1.481       .  S
O740        C743   1.268       .  A
O740       Cd745   2.525       .  S
C741        O750   1.265       .  A
C741        O746   1.270       .  A
C741       C1228   1.491       .  S
O742        C748   1.265       .  A
O742       Cd745   2.518       .  S
C743        O751   1.261       .  A
C744        O749   1.268       .  A
C744        O747   1.269       .  A
C744       C1245   1.488       .  S
Cd745       O752   2.417       .  S
Cd745       O751   2.453       .  S
Cd745       O750   2.447       .  S
Cd745       O746   2.523       .  S
Cd745       O749   2.416       .  S
Cd745       O747   2.486       .  S
C748        O752   1.262       .  A
C748       C1287   1.479       .  S
O753        C756   1.264       .  A
O753       Cd758   2.458       .  S
C754        O763   1.261       .  A
C754        O759   1.265       .  A
O755        C761   1.264       .  A
O755       Cd758   2.456       .  S
C756        O764   1.268       .  A
C756       C1189   1.492       .  S
C757        O762   1.267       .  A
C757        O760   1.268       .  A
C757       C1203   1.487       .  S
Cd758       O765   2.434       .  S
Cd758       O764   2.471       .  S
Cd758       O763   2.463       .  S
Cd758       O759   2.509       .  S
Cd758       O762   2.439       .  S
Cd758       O760   2.471       .  S
C761        O765   1.262       .  A
C761       C1214   1.479       .  S
O766        C769   1.265       .  A
O766       Cd771   2.513       .  S
C767        O776   1.268       .  A
C767        O772   1.263       .  A
C767       C1172   1.486       .  S
O768        C774   1.267       .  A
O768       Cd771   2.484       .  S
C769        O777   1.261       .  A
C769        C832   1.472       .  S
C770        O775   1.266       .  A
C770        O773   1.267       .  A
C770       C1270   1.491       .  S
Cd771       O778   2.439       .  S
Cd771       O777   2.470       .  S
Cd771       O776   2.512       .  S
Cd771       O772   2.428       .  S
Cd771       O775   2.458       .  S
Cd771       O773   2.485       .  S
C774        O778   1.262       .  A
C774       C1217   1.478       .  S
O779        C782   1.267       .  A
O779       Cd784   2.526       .  S
C780        O789   1.266       .  A
C780        O785   1.265       .  A
C780       C1130   1.492       .  S
O781        C787   1.266       .  A
O781       Cd784   2.501       .  S
C782        O790   1.260       .  A
C783        O788   1.267       .  A
C783        O786   1.269       .  A
C783       C1144   1.485       .  S
Cd784       O791   2.419       .  S
Cd784       O790   2.468       .  S
Cd784       O789   2.495       .  S
Cd784       O785   2.485       .  S
Cd784       O788   2.443       .  S
Cd784       O786   2.458       .  S
C787        O791   1.263       .  A
C787       C1161   1.484       .  S
O792        C795   1.268       .  A
O792       Cd797   2.523       .  S
C793        O802   1.263       .  A
C793        O798   1.270       .  A
C793       C1116   1.486       .  S
O794        C800   1.265       .  A
O794       Cd797   2.419       .  S
C795        O803   1.261       .  A
C796        O801   1.265       .  A
C796        O799   1.263       .  A
C796       C1158   1.481       .  S
Cd797       O804   2.505       .  S
Cd797       O803   2.454       .  S
Cd797       O802   2.417       .  S
Cd797       O798   2.536       .  S
Cd797       O801   2.498       .  S
Cd797       O799   2.429       .  S
C800        O804   1.271       .  A
C800       C1242   1.490       .  S
O805        C808   1.267       .  A
O805       Cd810   2.470       .  S
C806        O815   1.259       .  A
C806        O811   1.267       .  A
C806        C847   1.471       .  S
O807        C813   1.264       .  A
O807       Cd810   2.466       .  S
C808        O816   1.267       .  A
C808       C1091   1.492       .  S
C809        O814   1.267       .  A
C809        O812   1.268       .  A
C809       C1147   1.482       .  S
Cd810       O817   2.438       .  S
Cd810       O816   2.488       .  S
Cd810       O815   2.458       .  S
Cd810       O811   2.515       .  S
Cd810       O814   2.436       .  S
Cd810       O812   2.452       .  S
C813        O817   1.261       .  A
C813       C1102   1.477       .  S
O818        C821   1.266       .  A
O818       Cd823   2.464       .  S
C819        O828   1.259       .  A
C819        O824   1.267       .  A
O820        C826   1.266       .  A
O820       Cd823   2.454       .  S
C821        O829   1.267       .  A
C821       C1074   1.494       .  S
C822        O827   1.263       .  A
C822        O825   1.262       .  A
C822       C1105   1.483       .  S
Cd823       O830   2.481       .  S
Cd823       O829   2.503       .  S
Cd823       O828   2.461       .  S
Cd823       O824   2.542       .  S
Cd823       O827   2.469       .  S
Cd823       O825   2.459       .  S
C826        O830   1.269       .  A
C826       C1200   1.489       .  S
O831        C834   1.265       .  A
O831       Cd836   2.477       .  S
C832        O841   1.265       .  A
C832        O837   1.265       .  A
O833        C839   1.269       .  A
O833       Cd836   2.506       .  S
C834        O842   1.265       .  A
C834        C897   1.474       .  S
Cd836       O842   2.506       .  S
Cd836       O840   2.518       .  S
Cd836       O838   2.463       .  S
O844        C847   1.266       .  A
C845        O854   1.264       .  A
C845        O850   1.265       .  A
C845        C938   1.468       .  S
O846       Cd849   2.493       .  S
C847        O855   1.264       .  A
Cd849       O856   2.391       .  S
Cd849       O854   2.507       .  S
Cd849       O850   2.451       .  S
O857        C860   1.267       .  A
O857       Cd862   2.488       .  S
C858        O867   1.261       .  A
C858        O863   1.266       .  A
O859        C865   1.267       .  A
O859       Cd862   2.456       .  S
C860        O868   1.265       .  A
C860       C1256   1.492       .  S
C861        O866   1.264       .  A
C861        O864   1.262       .  A
C861       C1060   1.481       .  S
Cd862       O869   2.474       .  S
Cd862       O868   2.473       .  S
Cd862       O867   2.477       .  S
Cd862       O863   2.520       .  S
Cd862       O866   2.485       .  S
Cd862       O864   2.445       .  S
C865        O869   1.269       .  A
C865       C1049   1.490       .  S
O870        C873   1.271       .  A
O870       Cd875   2.528       .  S
C871        O880   1.262       .  A
C871        O876   1.269       .  A
O872        C878   1.265       .  A
O872       Cd875   2.469       .  S
C873        O881   1.263       .  A
C873       C1231   1.484       .  S
C874        O879   1.266       .  A
C874        O877   1.270       .  A
C874       C1035   1.485       .  S
Cd875       O882   2.411       .  S
Cd875       O881   2.411       .  S
Cd875       O880   2.456       .  S
Cd875       O876   2.524       .  S
Cd875       O879   2.421       .  S
Cd875       O877   2.480       .  S
C878        O882   1.263       .  A
C878       C1063   1.471       .  S
O883        C886   1.269       .  A
O883       Cd888   2.526       .  S
C884        O893   1.264       .  A
C884        O889   1.267       .  A
C884       C1186   1.488       .  S
O885        C891   1.265       .  A
O885       Cd888   2.488       .  S
C886        O894   1.261       .  A
C887        O892   1.267       .  A
C887        O890   1.270       .  A
C887       C1004   1.482       .  S
Cd888       O895   2.414       .  S
Cd888       O894   2.462       .  S
Cd888       O893   2.472       .  S
Cd888       O889   2.500       .  S
Cd888       O892   2.426       .  S
Cd888       O890   2.481       .  S
C891        O895   1.262       .  A
C891       C1018   1.473       .  S
O896        C899   1.265       .  A
O896       Cd901   2.485       .  S
C897        O906   1.261       .  A
C897        O902   1.267       .  A
O898        C904   1.264       .  A
O898       Cd901   2.486       .  S
C899        O907   1.266       .  A
C899       C1175   1.488       .  S
C900        O905   1.268       .  A
C900        O903   1.270       .  A
C900       C1046   1.489       .  S
Cd901       O908   2.438       .  S
Cd901       O907   2.491       .  S
Cd901       O906   2.462       .  S
Cd901       O902   2.518       .  S
Cd901       O905   2.448       .  S
Cd901       O903   2.475       .  S
C904        O908   1.262       .  A
C904       C1021   1.478       .  S
O909        C912   1.270       .  A
O909       Cd914   2.512       .  S
C910        O919   1.262       .  A
C910        O915   1.268       .  A
O911        C917   1.264       .  A
O911       Cd914   2.462       .  S
C912        O920   1.264       .  A
C912       C1133   1.478       .  S
C913        O918   1.267       .  A
C913        O916   1.269       .  A
C913        C979   1.491       .  S
Cd914       O921   2.438       .  S
Cd914       O920   2.420       .  S
Cd914       O919   2.449       .  S
Cd914       O915   2.510       .  S
Cd914       O918   2.450       .  S
Cd914       O916   2.481       .  S
C917        O921   1.262       .  A
C917        C990   1.479       .  S
O922        C925   1.270       .  A
O922       Cd927   2.531       .  S
C923        O932   1.261       .  A
C923        O928   1.268       .  A
O924        C930   1.266       .  A
O924       Cd927   2.435       .  S
C925        O933   1.264       .  A
C925       C1119   1.484       .  S
C926        O931   1.265       .  A
C926        O929   1.262       .  A
C926        C993   1.472       .  S
Cd927       O934   2.482       .  S
Cd927       O933   2.413       .  S
Cd927       O932   2.445       .  S
Cd927       O928   2.507       .  S
Cd927       O931   2.474       .  S
Cd927       O929   2.420       .  S
C930        O934   1.270       .  A
C930       C1032   1.487       .  S
O935        C938   1.268       .  A
O935       Cd940   2.527       .  S
C936        O945   1.268       .  A
C936        O941   1.266       .  A
C936       C1088   1.492       .  S
O937        C943   1.262       .  A
O937       Cd940   2.466       .  S
C938        O946   1.258       .  A
C939        O944   1.266       .  A
C939        O942   1.268       .  A
C939        C976   1.486       .  S
Cd940       O947   2.455       .  S
Cd940       O946   2.423       .  S
Cd940       O945   2.493       .  S
Cd940       O941   2.470       .  S
Cd940       O944   2.441       .  S
Cd940       O942   2.476       .  S
C943        O947   1.263       .  A
C943        C965   1.482       .  S
O948        C951   1.266       .  A
O948       Cd953   2.465       .  S
C949        O958   1.260       .  A
C949        O954   1.266       .  A
O950        C956   1.263       .  A
O950       Cd953   2.459       .  S
C951        O959   1.267       .  A
C951       C1077   1.494       .  S
C952        O957   1.266       .  A
C952        O955   1.268       .  A
C952       C1007   1.483       .  S
Cd953       O960   2.449       .  S
Cd953       O959   2.496       .  S
Cd953       O958   2.460       .  S
Cd953       O954   2.508       .  S
Cd953       O957   2.440       .  S
Cd953       O955   2.469       .  S
C956        O960   1.262       .  A
C956        C962   1.481       .  S
C961        C962   1.405       .  A
C961        C966   1.405       .  A
C961        H968   1.083       .  S
C962        C963   1.411       .  A
C963        C964   1.399       .  A
C963        N970   1.433       .  S
C964        C965   1.404       .  A
C964        H969   1.084       .  S
C965        C966   1.414       .  A
C966        N967   1.438       .  S
N967        H971   1.046       .  S
N967        H972   1.046       .  S
N970        H973   1.046       .  S
N970        H974   1.046       .  S
C975        C976   1.405       .  A
C975        C980   1.409       .  A
C975        H982   1.084       .  S
C976        C977   1.414       .  A
C977        C978   1.404       .  A
C977        N984   1.438       .  S
C978        C979   1.406       .  A
C978        H983   1.083       .  S
C979        C980   1.416       .  A
C980        N981   1.438       .  S
N981        H985   1.046       .  S
N981        H986   1.045       .  S
N984        H987   1.045       .  S
N984        H988   1.046       .  S
C989        C990   1.405       .  A
C989        C994   1.398       .  A
C989        H996   1.084       .  S
C990        C991   1.415       .  A
C991        C992   1.405       .  A
C991        N998   1.438       .  S
C992        C993   1.402       .  A
C992        H997   1.084       .  S
C993        C994   1.407       .  A
C994        N995   1.433       .  S
N995        H999   1.046       .  S
N995       H1000   1.046       .  S
N998       H1001   1.045       .  S
N998       H1002   1.046       .  S
C1003      C1004   1.404       .  A
C1003      C1008   1.400       .  A
C1003      H1010   1.084       .  S
C1004      C1005   1.411       .  A
C1005      C1006   1.406       .  A
C1005      N1012   1.432       .  S
C1006      C1007   1.406       .  A
C1006      H1011   1.084       .  S
C1007      C1008   1.411       .  A
C1008      N1009   1.433       .  S
N1009      H1013   1.046       .  S
N1009      H1014   1.046       .  S
N1012      H1015   1.045       .  S
N1012      H1016   1.046       .  S
C1017      C1018   1.403       .  A
C1017      C1022   1.403       .  A
C1017      H1024   1.084       .  S
C1018      C1019   1.410       .  A
C1019      C1020   1.401       .  A
C1019      N1026   1.438       .  S
C1020      C1021   1.404       .  A
C1020      H1025   1.084       .  S
C1021      C1022   1.411       .  A
C1022      N1023   1.432       .  S
N1023      H1027   1.045       .  S
N1023      H1028   1.046       .  S
N1026      H1029   1.046       .  S
N1026      H1030   1.046       .  S
C1031      C1032   1.406       .  A
C1031      C1036   1.407       .  A
C1031      H1038   1.084       .  S
C1032      C1033   1.412       .  A
C1033      C1034   1.401       .  A
C1033      N1040   1.433       .  S
C1034      C1035   1.404       .  A
C1034      H1039   1.084       .  S
C1035      C1036   1.412       .  A
C1036      N1037   1.432       .  S
N1037      H1041   1.046       .  S
N1037      H1042   1.045       .  S
N1040      H1043   1.046       .  S
N1040      H1044   1.046       .  S
C1045      C1046   1.405       .  A
C1045      C1050   1.406       .  A
C1045      H1052   1.084       .  S
C1046      C1047   1.414       .  A
C1047      C1048   1.409       .  A
C1047      N1054   1.438       .  S
C1048      C1049   1.406       .  A
C1048      H1053   1.083       .  S
C1049      C1050   1.415       .  A
C1050      N1051   1.438       .  S
N1051      H1055   1.046       .  S
N1051      H1056   1.046       .  S
N1054      H1057   1.046       .  S
N1054      H1058   1.046       .  S
C1059      C1060   1.406       .  A
C1059      C1064   1.402       .  A
C1059      H1066   1.084       .  S
C1060      C1061   1.412       .  A
C1061      C1062   1.401       .  A
C1061      N1068   1.432       .  S
C1062      C1063   1.402       .  A
C1062      H1067   1.084       .  S
C1063      C1064   1.410       .  A
C1064      N1065   1.439       .  S
N1065      H1069   1.046       .  S
N1065      H1070   1.046       .  S
N1068      H1071   1.046       .  S
N1068      H1072   1.046       .  S
C1073      C1074   1.406       .  A
C1073      C1078   1.408       .  A
C1073      H1080   1.083       .  S
C1074      C1075   1.413       .  A
C1075      C1076   1.408       .  A
C1075      N1082   1.432       .  S
C1076      C1077   1.408       .  A
C1076      H1081   1.084       .  S
C1077      C1078   1.415       .  A
C1078      N1079   1.438       .  S
N1079      H1083   1.046       .  S
N1079      H1084   1.046       .  S
N1082      H1085   1.046       .  S
N1082      H1086   1.046       .  S
C1087      C1088   1.406       .  A
C1087      C1092   1.407       .  A
C1087      H1094   1.084       .  S
C1088      C1089   1.414       .  A
C1089      C1090   1.408       .  A
C1089      N1096   1.437       .  S
C1090      C1091   1.406       .  A
C1090      H1095   1.083       .  S
C1091      C1092   1.413       .  A
C1092      N1093   1.432       .  S
N1093      H1097   1.046       .  S
N1093      H1098   1.046       .  S
N1096      H1099   1.046       .  S
N1096      H1100   1.046       .  S
C1101      C1102   1.403       .  A
C1101      C1106   1.404       .  A
C1101      H1108   1.083       .  S
C1102      C1103   1.410       .  A
C1103      C1104   1.400       .  A
C1103      N1110   1.433       .  S
C1104      C1105   1.406       .  A
C1104      H1109   1.084       .  S
C1105      C1106   1.415       .  A
C1106      N1107   1.437       .  S
N1107      H1111   1.046       .  S
N1107      H1112   1.045       .  S
N1110      H1113   1.046       .  S
N1110      H1114   1.046       .  S
C1115      C1116   1.403       .  A
C1115      C1120   1.399       .  A
C1115      H1122   1.084       .  S
C1116      C1117   1.418       .  A
C1117      C1118   1.409       .  A
C1117      N1124   1.432       .  S
C1118      C1119   1.407       .  A
C1118      H1123   1.084       .  S
C1119      C1120   1.408       .  A
C1120      N1121   1.433       .  S
N1121      H1125   1.046       .  S
N1121      H1126   1.046       .  S
N1124      H1127   1.046       .  S
N1124      H1128   1.045       .  S
C1129      C1130   1.407       .  A
C1129      C1134   1.400       .  A
C1129      H1136   1.084       .  S
C1130      C1131   1.416       .  A
C1131      C1132   1.410       .  A
C1131      N1138   1.437       .  S
C1132      C1133   1.402       .  A
C1132      H1137   1.084       .  S
C1133      C1134   1.412       .  A
C1134      N1135   1.434       .  S
N1135      H1139   1.044       .  S
N1135      H1140   1.045       .  S
N1138      H1141   1.046       .  S
N1138      H1142   1.046       .  S
C1143      C1144   1.406       .  A
C1143      C1148   1.406       .  A
C1143      H1150   1.083       .  S
C1144      C1145   1.414       .  A
C1145      C1146   1.403       .  A
C1145      N1152   1.438       .  S
C1146      C1147   1.404       .  A
C1146      H1151   1.083       .  S
C1147      C1148   1.413       .  A
C1148      N1149   1.438       .  S
N1149      H1153   1.046       .  S
N1149      H1154   1.046       .  S
N1152      H1155   1.046       .  S
N1152      H1156   1.046       .  S
C1157      C1158   1.406       .  A
C1157      C1162   1.410       .  A
C1157      H1164   1.083       .  S
C1158      C1159   1.411       .  A
C1159      C1160   1.400       .  A
C1159      N1166   1.438       .  S
C1160      C1161   1.404       .  A
C1160      H1165   1.084       .  S
C1161      C1162   1.414       .  A
C1162      N1163   1.437       .  S
N1163      H1167   1.046       .  S
N1163      H1168   1.046       .  S
N1166      H1169   1.046       .  S
N1166      H1170   1.046       .  S
C1171      C1172   1.406       .  A
C1171      C1176   1.410       .  A
C1171      H1178   1.084       .  S
C1172      C1173   1.413       .  A
C1173      C1174   1.406       .  A
C1173      N1180   1.438       .  S
C1174      C1175   1.404       .  A
C1174      H1179   1.084       .  S
C1175      C1176   1.413       .  A
C1176      N1177   1.437       .  S
N1177      H1181   1.046       .  S
N1177      H1182   1.046       .  S
N1180      H1183   1.045       .  S
N1180      H1184   1.046       .  S
C1185      C1186   1.404       .  A
C1185      C1190   1.402       .  A
C1185      H1192   1.084       .  S
C1186      C1187   1.412       .  A
C1187      C1188   1.407       .  A
C1187      N1194   1.437       .  S
C1188      C1189   1.407       .  A
C1188      H1193   1.083       .  S
C1189      C1190   1.421       .  A
C1190      N1191   1.433       .  S
N1191      H1195   1.044       .  S
N1191      H1196   1.046       .  S
N1194      H1197   1.046       .  S
N1194      H1198   1.046       .  S
C1199      C1200   1.406       .  A
C1199      C1204   1.409       .  A
C1199      H1206   1.083       .  S
C1200      C1201   1.412       .  A
C1201      C1202   1.401       .  A
C1201      N1208   1.433       .  S
C1202      C1203   1.405       .  A
C1202      H1207   1.084       .  S
C1203      C1204   1.415       .  A
C1204      N1205   1.437       .  S
N1205      H1209   1.046       .  S
N1205      H1210   1.045       .  S
N1208      H1211   1.046       .  S
N1208      H1212   1.046       .  S
C1213      C1214   1.405       .  A
C1213      C1218   1.399       .  A
C1213      H1220   1.084       .  S
C1214      C1215   1.414       .  A
C1215      C1216   1.405       .  A
C1215      N1222   1.438       .  S
C1216      C1217   1.403       .  A
C1216      H1221   1.083       .  S
C1217      C1218   1.410       .  A
C1218      N1219   1.433       .  S
N1219      H1223   1.046       .  S
N1219      H1224   1.046       .  S
N1222      H1225   1.046       .  S
N1222      H1226   1.046       .  S
C1227      C1228   1.405       .  A
C1227      C1232   1.403       .  A
C1227      H1234   1.084       .  S
C1228      C1229   1.419       .  A
C1229      C1230   1.408       .  A
C1229      N1236   1.432       .  S
C1230      C1231   1.404       .  A
C1230      H1235   1.084       .  S
C1231      C1232   1.409       .  A
C1232      N1233   1.433       .  S
N1233      H1237   1.046       .  S
N1233      H1238   1.046       .  S
N1236      H1239   1.045       .  S
N1236      H1240   1.045       .  S
C1241      C1242   1.407       .  A
C1241      C1246   1.412       .  A
C1241      H1248   1.083       .  S
C1242      C1243   1.415       .  A
C1243      C1244   1.401       .  A
C1243      N1250   1.438       .  S
C1244      C1245   1.403       .  A
C1244      H1249   1.083       .  S
C1245      C1246   1.416       .  A
C1246      N1247   1.438       .  S
N1247      H1251   1.045       .  S
N1247      H1252   1.046       .  S
N1250      H1253   1.045       .  S
N1250      H1254   1.046       .  S
C1255      C1256   1.405       .  A
C1255      C1260   1.406       .  A
C1255      H1262   1.084       .  S
C1256      C1257   1.413       .  A
C1257      C1258   1.408       .  A
C1257      N1264   1.432       .  S
C1258      C1259   1.407       .  A
C1258      H1263   1.084       .  S
C1259      C1260   1.414       .  A
C1260      N1261   1.432       .  S
N1261      H1265   1.046       .  S
N1261      H1266   1.045       .  S
N1264      H1267   1.046       .  S
N1264      H1268   1.045       .  S
C1269      C1270   1.406       .  A
C1269      C1274   1.410       .  A
C1269      H1276   1.083       .  S
C1270      C1271   1.414       .  A
C1271      C1272   1.405       .  A
C1271      N1278   1.438       .  S
C1272      C1273   1.406       .  A
C1272      H1277   1.083       .  S
C1273      C1274   1.416       .  A
C1274      N1275   1.438       .  S
N1275      H1279   1.046       .  S
N1275      H1280   1.046       .  S
N1278      H1281   1.046       .  S
N1278      H1282   1.046       .  S
C1283      C1284   1.408       .  A
C1283      C1288   1.411       .  A
C1283      H1290   1.083       .  S
C1284      C1285   1.409       .  A
C1285      C1286   1.397       .  A
C1285      N1292   1.433       .  S
C1286      C1287   1.402       .  A
C1286      H1291   1.084       .  S
C1287      C1288   1.413       .  A
C1288      N1289   1.437       .  S
N1289      H1293   1.046       .  S
N1289      H1294   1.046       .  S
N1292      H1295   1.046       .  S
N1292      H1296   1.046       .  S
