geometry optimzed in LAMMPS
_audit_creation_date              2020-11-30 
_audit_creation_method            'lammps2cif' 
_symmetry_space_group_name_H-M    'P1' 
_symmetry_Int_Tables_number       1 
_symmetry_cell_setting            triclinic 
loop_ 
_symmetry_equiv_pos_as_xyz 
  x,y,z 
_cell_length_a                    34.08399128 
_cell_length_b                    44.60983139497528 
_cell_length_c                    59.8449052028003 
_cell_angle_alpha                 90.09045344282995 
_cell_angle_beta                  90.0867747603435 
_cell_angle_gamma                 90.00492755841773 
loop_ 
_atom_site_label 
_atom_site_type_symbol 
_atom_site_fract_x 
_atom_site_fract_y 
_atom_site_fract_z 
_atom_site_charge 
N1          N  0.42947377  0.60071400  0.20588791    -0.26600
N2          N  0.43013062  0.59146523  0.18491014    -0.34400
C3          C  0.46725075  0.58510830  0.17911008     0.01800
C4          C  0.49123202  0.59059480  0.19730999     0.07800
C5          C  0.46632489  0.60040411  0.21406433    -0.05300
H6          H  0.47620658  0.57803795  0.16259189     0.08400
H7          H  0.47448022  0.60775378  0.23067054     0.09600
Cu8        Cu  0.38141820  0.59110556  0.16427990     0.44200
Cu9        Cu  0.37833512  0.61522644  0.22124661     0.42000
Cu10       Cu  0.29406513  0.62819231  0.18394863     0.43900
N11         N  0.33318159  0.59939818  0.14423576    -0.34000
N12         N  0.30205136  0.61475066  0.15077870    -0.28200
C13         C  0.27787393  0.61837943  0.13311095    -0.04300
C14         C  0.29446309  0.60413189  0.11479667     0.07900
C15         C  0.32938555  0.59232021  0.12251338     0.01700
H16         H  0.25007052  0.63003202  0.13363049     0.09300
H17         H  0.35104001  0.58018846  0.11287003     0.08400
N18         N  0.29283695  0.63372488  0.21866146    -0.35400
N19         N  0.32314059  0.62856450  0.23198675    -0.27600
C20         C  0.31197749  0.63247609  0.25334281    -0.02800
C21         C  0.27283422  0.64051069  0.25357647     0.05800
C22         C  0.26163629  0.64117805  0.23130803     0.03900
H23         H  0.33095478  0.62933414  0.26766631     0.09000
H24         H  0.23271035  0.64605099  0.22478200     0.07800
C25         C  0.25301322  0.62609818  0.05820926     0.03800
C26         C  0.26512444  0.62765726  0.08070636    -0.12300
C27         C  0.27918463  0.60206147  0.09173740     0.01300
C28         C  0.28130127  0.57471737  0.08017447    -0.10800
C29         C  0.26907817  0.57261365  0.05781550     0.03800
C30         C  0.25436010  0.59825124  0.04712790    -0.10300
H31         H  0.26589538  0.64903671  0.08927918     0.09400
H32         H  0.29223747  0.55498775  0.08866488     0.06900
H33         H  0.24515305  0.59669796  0.02981486     0.06800
N34         N  0.59662283  0.59338585  0.20780095    -0.26600
N35         N  0.59594828  0.58603884  0.18639555    -0.34400
C36         C  0.55852565  0.58304566  0.17971539     0.01800
C37         C  0.53436071  0.58890763  0.19772173     0.07800
C38         C  0.55945717  0.59534611  0.21530861    -0.05300
H39         H  0.54962026  0.57824475  0.16272495     0.08400
H40         H  0.55135650  0.60191255  0.23208620     0.09600
Cu41       Cu  0.64514034  0.58435440  0.16619456     0.44200
Cu42       Cu  0.64828648  0.60261322  0.22492610     0.42000
Cu43       Cu  0.73414954  0.61417673  0.18895837     0.43900
N44         N  0.69457339  0.59238977  0.14707874    -0.34000
N45         N  0.72666962  0.60520380  0.15503132    -0.28200
C46         C  0.75166687  0.61017627  0.13798824    -0.04300
C47         C  0.73455408  0.59943895  0.11855133     0.07900
C48         C  0.69847809  0.58830874  0.12493514     0.01700
H49         H  0.78013880  0.62064838  0.13962731     0.09300
H50         H  0.67610540  0.57895673  0.11414480     0.08400
N51         N  0.73493873  0.61707901  0.22373425    -0.35400
N52         N  0.70416207  0.61246056  0.23675422    -0.27600
C53         C  0.71511478  0.61578792  0.25824981    -0.02800
C54         C  0.75459276  0.62292572  0.25877820     0.05800
C55         C  0.76617264  0.62353601  0.23662803     0.03900
H56         H  0.69559997  0.61363017  0.27239496     0.09000
H57         H  0.79518924  0.62847250  0.23028325     0.07800
C58         C  0.76772210  0.63017833  0.06277442     0.03800
C59         C  0.77259730  0.60348061  0.05054629    -0.12300
C60         C  0.76615721  0.57552463  0.06068414     0.01300
C61         C  0.75456043  0.57440149  0.08316119    -0.10800
C62         C  0.74987414  0.60084265  0.09557359     0.03800
C63         C  0.75678896  0.62863440  0.08539219    -0.10300
H64         H  0.78052138  0.60445213  0.03305318     0.09400
H65         H  0.74865182  0.55292027  0.09091564     0.06900
H66         H  0.75227351  0.64911241  0.09483535     0.06800
N67         N  0.08691368  0.83065044  0.82365863    -0.26600
N68         N  0.08605211  0.82148409  0.84460940    -0.34400
C69         C  0.04900232  0.81459460  0.85018098     0.01800
C70         C  0.02525355  0.81985756  0.83185921     0.07800
C71         C  0.05026323  0.82992413  0.81526534    -0.05300
H72         H  0.03974451  0.80832973  0.86681005     0.08400
H73         H  0.04218091  0.83777609  0.79879133     0.09600
Cu74       Cu  0.13364315  0.82479168  0.86576190     0.44200
Cu75       Cu  0.13770369  0.84703704  0.80921230     0.42000
Cu76       Cu  0.21931768  0.86592389  0.84739641     0.43900
N77         N  0.17762160  0.83901569  0.88696107    -0.34000
N78         N  0.20792848  0.85569005  0.88099181    -0.28200
C79         C  0.22850490  0.86295644  0.89956265    -0.04300
C80         C  0.21030824  0.84976141  0.91782585     0.07900
C81         C  0.17835649  0.83477730  0.90913258     0.01700
H82         H  0.25508619  0.87619878  0.89971321     0.09300
H83         H  0.15665607  0.82214642  0.91834556     0.08400
N84         N  0.22177255  0.86919580  0.81241509    -0.35400
N85         N  0.19216609  0.86233514  0.79898290    -0.27600
C86         C  0.20328509  0.86620552  0.77764576    -0.02800
C87         C  0.24174057  0.87590510  0.77744129     0.05800
C88         C  0.25260931  0.87757128  0.79976583     0.03900
H89         H  0.18469727  0.86197915  0.76331654     0.09000
H90         H  0.28092994  0.88419838  0.80633915     0.07800
C91         C  0.22980265  0.82240324  0.97647754     0.03800
C92         C  0.22211565  0.82291936  0.95347144    -0.12300
C93         C  0.22191114  0.85003190  0.94160775     0.01300
C94         C  0.22910386  0.87702854  0.95304084    -0.10800
C95         C  0.23517021  0.87689463  0.97630932     0.03800
C96         C  0.23591953  0.84953402  0.98786965    -0.10300
H97         H  0.21651554  0.80204704  0.94471208     0.09400
H98         H  0.22788338  0.89813884  0.94412607     0.06900
H99         H  0.24050605  0.84943709  0.00578586     0.06800
N100        N  0.92072273  0.83134089  0.82334665    -0.26600
N101        N  0.92090482  0.82015163  0.84376022    -0.34400
C102        C  0.95782339  0.81279801  0.84937083     0.01800
C103        C  0.98211264  0.81975590  0.83163261     0.07800
C104        C  0.95759302  0.83133002  0.81533094    -0.05300
H105        H  0.96660789  0.80493218  0.86572409     0.08400
H106        H  0.96616574  0.84081476  0.79944644     0.09600
Cu107      Cu  0.87263482  0.82125867  0.86460553     0.44200
Cu108      Cu  0.87078568  0.84949391  0.80912078     0.42000
Cu109      Cu  0.78886169  0.86528855  0.84711796     0.43900
N110        N  0.82878986  0.83519772  0.88606333    -0.34000
N111        N  0.79965031  0.85321996  0.88034755    -0.28200
C112        C  0.78006993  0.86128631  0.89901567    -0.04300
C113        C  0.79749704  0.84716416  0.91712954     0.07900
C114        C  0.82809932  0.83079358  0.90824470     0.01700
H115        H  0.75508483  0.87621900  0.89938209     0.09300
H116        H  0.84950524  0.81775052  0.91738812     0.08400
N117        N  0.78642223  0.87043401  0.81237343    -0.35400
N118        N  0.81637069  0.86486052  0.79893044    -0.27600
C119        C  0.80515241  0.86914682  0.77765033    -0.02800
C120        C  0.76623205  0.87769526  0.77752323     0.05800
C121        C  0.75522029  0.87834633  0.79981619     0.03900
H122        H  0.82385370  0.86560803  0.76329094     0.09000
H123        H  0.72648488  0.88364550  0.80640962     0.07800
C124        C  0.77961113  0.82509502  0.97716185     0.03800
C125        C  0.78532912  0.82344036  0.95401035    -0.12300
C126        C  0.78782901  0.84960734  0.94110398     0.01300
C127        C  0.78445804  0.87774737  0.95154926    -0.10800
C128        C  0.78021236  0.87978259  0.97493528     0.03800
C129        C  0.77764487  0.85324685  0.98753840    -0.10300
H130        H  0.78828495  0.80171578  0.94605870     0.09400
H131        H  0.78634099  0.89793463  0.94159307     0.06900
H132        H  0.77443448  0.85445699  0.00554608     0.06800
N133        N  0.45965537  0.34252577  0.83349972    -0.26600
N134        N  0.46005309  0.33219029  0.85418820    -0.34400
C135        C  0.49720606  0.32539829  0.85988714     0.01800
C136        C  0.52131616  0.33181448  0.84191865     0.07800
C137        C  0.49650578  0.34257035  0.82546622    -0.05300
H138        H  0.50612932  0.31748139  0.87619039     0.08400
H139        H  0.50472179  0.35076180  0.80912197     0.09600
Cu140      Cu  0.41059433  0.33084078  0.87442793     0.44200
Cu141      Cu  0.40929355  0.35787948  0.81777558     0.42000
Cu142      Cu  0.32312346  0.36740355  0.85293894     0.43900
N143        N  0.36025421  0.33793935  0.89325828    -0.34000
N144        N  0.32933491  0.35305908  0.88605080    -0.28200
C145        C  0.30414922  0.35674454  0.90321331    -0.04300
C146        C  0.31963004  0.34265919  0.92189796     0.07900
C147        C  0.35516407  0.33102455  0.91493646     0.01700
H148        H  0.27682018  0.36898363  0.90223692     0.09300
H149        H  0.37675355  0.31980176  0.92522033     0.08400
N150        N  0.32348873  0.37476094  0.81838601    -0.35400
N151        N  0.35492658  0.37112534  0.80571855    -0.29200
C152        C  0.34517116  0.37587740  0.78421282    -0.02800
C153        C  0.30565950  0.38275717  0.78317402     0.05800
C154        C  0.29285742  0.38192659  0.80516009     0.03900
H155        H  0.36526101  0.37379130  0.77030656     0.09000
H156        H  0.26324653  0.38554777  0.81106948     0.07800
C157        C  0.29323374  0.31765125  0.98060081     0.03800
C158        C  0.28671017  0.34569184  0.99083114    -0.12300
C159        C  0.28741442  0.37240338  0.97827884     0.01300
C160        C  0.29565460  0.37074879  0.95525892    -0.10800
C161        C  0.30490544  0.34331431  0.94512593     0.03800
C162        C  0.30333433  0.31687990  0.95778650    -0.10300
H163        H  0.28212983  0.34672892  0.00869294     0.09400
H164        H  0.29676526  0.39107300  0.94537070     0.06900
H165        H  0.30969939  0.29565738  0.94973635     0.06800
N166        N  0.62627278  0.33871677  0.83171628    -0.26600
N167        N  0.62642161  0.32777885  0.85221241    -0.34400
C168        C  0.58927997  0.32245057  0.85861819     0.01800
C169        C  0.56449301  0.33047305  0.84131301     0.07800
C170        C  0.58895369  0.34056387  0.82445919    -0.05300
H171        H  0.58089134  0.31494161  0.87511756     0.08400
H172        H  0.58022351  0.35002779  0.80858609     0.09600
Cu173      Cu  0.67638971  0.32586500  0.87180089     0.44200
Cu174      Cu  0.67681219  0.35398668  0.81614848     0.42000
Cu175      Cu  0.76194280  0.36675207  0.85254732     0.43900
N176        N  0.72364237  0.33637951  0.89204886    -0.34000
N177        N  0.75354168  0.35337508  0.88589206    -0.28200
C178        C  0.77537411  0.35966184  0.90418625    -0.04300
C179        C  0.75866553  0.34535724  0.92246132     0.07900
C180        C  0.72607973  0.33082723  0.91405668     0.01700
H181        H  0.80121128  0.37373816  0.90424096     0.09300
H182        H  0.70435199  0.31855846  0.92352155     0.08400
N183        N  0.76195897  0.37352126  0.81775165    -0.35400
N184        N  0.73099214  0.36877139  0.80482701    -0.27600
C185        C  0.74065428  0.37426739  0.78342728    -0.02800
C186        C  0.77959465  0.38282082  0.78264749     0.05800
C187        C  0.79220845  0.38212427  0.80472112     0.03900
H188        H  0.72080275  0.37180043  0.76941455     0.09000
H189        H  0.82137938  0.38715741  0.81083894     0.07800
C190        C  0.77603305  0.32249650  0.98264669     0.03800
C191        C  0.78135916  0.35063229  0.99276194    -0.12300
C192        C  0.78078685  0.37697703  0.97994315     0.01300
C193        C  0.77584146  0.37510188  0.95666108    -0.10800
C194        C  0.76967359  0.34717421  0.94634830     0.03800
C195        C  0.76977038  0.32101627  0.95944350    -0.10300
H196        H  0.78489248  0.35212397  0.01074335     0.09400
H197        H  0.77421709  0.39545473  0.94684117     0.06900
H198        H  0.76517509  0.29945698  0.95151198     0.06800
N199        N  0.11207076  0.09173566  0.21643115    -0.26600
N200        N  0.11267717  0.08003649  0.19615227    -0.34400
C201        C  0.07594781  0.07267983  0.19007411     0.01800
C202        C  0.05093294  0.08006465  0.20739555     0.07800
C203        C  0.07483551  0.09198703  0.22391156    -0.05300
H204        H  0.06789051  0.06402312  0.17380887     0.08400
H205        H  0.06566057  0.10154582  0.23968690     0.09600
Cu206      Cu  0.16238372  0.07914799  0.17644648     0.44200
Cu207      Cu  0.16185720  0.10967307  0.23127426     0.42000
Cu208      Cu  0.24641658  0.12271381  0.19403426     0.43900
N209        N  0.20884777  0.08926938  0.15565796    -0.34000
N210        N  0.23835966  0.10711146  0.16110621    -0.28200
C211        C  0.25992833  0.11228053  0.14254536    -0.04300
C212        C  0.24340141  0.09638561  0.12485611     0.07900
C213        C  0.21122442  0.08210279  0.13390848     0.01700
H214        H  0.28554688  0.12654944  0.14192754     0.09300
H215        H  0.18978507  0.06871621  0.12503013     0.08400
N216        N  0.24633456  0.13096235  0.22871791    -0.35400
N217        N  0.21575794  0.12606465  0.24186275    -0.27600
C218        C  0.22577325  0.13206216  0.26316087    -0.02800
C219        C  0.26451172  0.14112027  0.26366115     0.05800
C220        C  0.27664143  0.14024102  0.24152081     0.03900
H221        H  0.20638970  0.12933146  0.27732909     0.09000
H222        H  0.30565576  0.14524804  0.23524311     0.07800
C223        C  0.26714187  0.12288790  0.06609289     0.03800
C224        C  0.26532089  0.09564292  0.05436846    -0.12300
C225        C  0.25839281  0.06859755  0.06559384     0.01300
C226        C  0.25247314  0.06901048  0.08880740    -0.10800
C227        C  0.25442891  0.09606651  0.10090352     0.03800
C228        C  0.26265921  0.12289183  0.08949024    -0.10300
H229        H  0.26924883  0.09549297  0.03639661     0.09400
H230        H  0.24549482  0.04832876  0.09739325     0.06900
H231        H  0.26322224  0.14393553  0.09856536     0.06800
N232        N  0.94542438  0.08656022  0.21562494    -0.26600
N233        N  0.94659013  0.07756819  0.19458762    -0.34400
C234        C  0.98413586  0.07269896  0.18876012     0.01800
C235        C  0.00775604  0.07908678  0.20698320     0.07800
C236        C  0.98223298  0.08774128  0.22375529    -0.05300
H237        H  0.99361981  0.06654875  0.17213008     0.08400
H238        H  0.98989144  0.09552599  0.24032384     0.09600
Cu239      Cu  0.89780568  0.07691942  0.17384389     0.44200
Cu240      Cu  0.89400383  0.09961382  0.23128231     0.42000
Cu241      Cu  0.81014296  0.11349718  0.19451320     0.43900
N242        N  0.84957654  0.08666893  0.15398372    -0.34000
N243        N  0.81861059  0.10193656  0.16092382    -0.28200
C244        C  0.79533831  0.10771890  0.14316577    -0.04300
C245        C  0.81223529  0.09490281  0.12436716     0.07900
C246        C  0.84645822  0.08175592  0.13188475     0.01700
H247        H  0.76829267  0.12035626  0.14385666     0.09300
H248        H  0.86848608  0.07070657  0.12181308     0.08400
N249        N  0.80883556  0.11836176  0.22933705    -0.35400
N250        N  0.83922958  0.11296344  0.24252714    -0.27600
C251        C  0.82856527  0.11723975  0.26393597    -0.02800
C252        C  0.78958709  0.12573946  0.26435486     0.05800
C253        C  0.77800315  0.12625594  0.24213092     0.03900
H254        H  0.84783101  0.11424749  0.27815165     0.09000
H255        H  0.74917466  0.13170571  0.23572224     0.07800
C256        C  0.78874391  0.12679764  0.06729539     0.03800
C257        C  0.79546073  0.12488737  0.09044071    -0.12300
C258        C  0.79939420  0.09687231  0.10083419     0.01300
C259        C  0.79502558  0.07060759  0.08811432    -0.10800
C260        C  0.78659689  0.07198051  0.06510469     0.03800
C261        C  0.78387831  0.10025760  0.05482822    -0.10300
H262        H  0.79989765  0.14517993  0.10011915     0.09400
H263        H  0.79828048  0.04902020  0.09620597     0.06900
H264        H  0.77889455  0.10167470  0.03701552     0.06800
N265        N  0.61219051  0.17927455  0.33192422    -0.26600
N266        N  0.61261056  0.18917968  0.35273027    -0.34400
C267        C  0.57586718  0.19600357  0.35898771     0.01800
C268        C  0.55097000  0.19012144  0.34126707     0.07800
C269        C  0.57498690  0.17966396  0.32429473    -0.05300
H270        H  0.56769942  0.20311634  0.37563352     0.08400
H271        H  0.56589469  0.17139334  0.30809252     0.09600
Cu272      Cu  0.66173373  0.18801724  0.37291803     0.44200
Cu273      Cu  0.66215918  0.16250620  0.31656541     0.42000
Cu274      Cu  0.74531510  0.14550192  0.35402381     0.43900
N275        N  0.70758758  0.17579504  0.39353350    -0.34000
N276        N  0.73701455  0.15833664  0.38737547    -0.28200
C277        C  0.75886674  0.15192629  0.40559870    -0.04300
C278        C  0.74256935  0.16656980  0.42385088     0.07900
C279        C  0.71025014  0.18147242  0.41551328     0.01700
H280        H  0.78479237  0.13792974  0.40555101     0.09300
H281        H  0.68925124  0.19456564  0.42491775     0.08400
N282        N  0.74628946  0.14043220  0.31919255    -0.35400
N283        N  0.71628714  0.14668018  0.30589585    -0.27600
C284        C  0.72699197  0.14210403  0.28453341    -0.02800
C285        C  0.76556938  0.13261808  0.28422635     0.05800
C286        C  0.77689932  0.13177295  0.30648455     0.03900
H287        H  0.70814085  0.14588267  0.27024276     0.09000
H288        H  0.80547377  0.12572579  0.31296925     0.07800
C289        C  0.76407633  0.19274140  0.48277878     0.03800
C290        C  0.77248873  0.16541720  0.49334193    -0.12300
C291        C  0.77152035  0.13827332  0.48135268     0.01300
C292        C  0.76349230  0.13888267  0.45825332    -0.10800
C293        C  0.75514547  0.16607914  0.44748077     0.03800
C294        C  0.75527970  0.19282056  0.45986322    -0.10300
H295        H  0.77953692  0.16520865  0.51099727     0.09400
H296        H  0.76124210  0.11811063  0.44895305     0.06900
H297        H  0.74815660  0.21379068  0.45166387     0.06800
N298        N  0.44531748  0.18371133  0.33312267    -0.26600
N299        N  0.44695701  0.19064026  0.35457609    -0.34400
C300        C  0.48454941  0.19522735  0.36042346     0.01800
C301        C  0.50779495  0.19078779  0.34178706     0.07800
C302        C  0.48196250  0.18357141  0.32473015    -0.05300
H303        H  0.49434326  0.19977915  0.37729204     0.08400
H304        H  0.48932248  0.17745936  0.30774448     0.09600
Cu305      Cu  0.39901221  0.18871212  0.37572416     0.44200
Cu306      Cu  0.39330603  0.17211439  0.31728941     0.42000
Cu307      Cu  0.30942504  0.15647365  0.35402349     0.43900
N308        N  0.35199192  0.17677026  0.39568986    -0.34000
N309        N  0.31998439  0.16322097  0.38826897    -0.28200
C310        C  0.29730883  0.15602760  0.40598205    -0.04300
C311        C  0.31583475  0.16602536  0.42529234     0.07900
C312        C  0.35025568  0.17912321  0.41805299     0.01700
H313        H  0.26921624  0.14483764  0.40488485     0.09300
H314        H  0.37296127  0.18895319  0.42837548     0.08400
N315        N  0.30751199  0.15449300  0.31893158    -0.35400
N316        N  0.33793042  0.16021362  0.30586897    -0.27600
C317        C  0.32720769  0.15669395  0.28436648    -0.02800
C318        C  0.28817518  0.14836472  0.28369798     0.05800
C319        C  0.27658786  0.14723645  0.30591554     0.03900
H320        H  0.34663197  0.15971395  0.27025078     0.09000
H321        H  0.24788805  0.14125568  0.31218493     0.07800
C322        C  0.28240595  0.13390704  0.48100144     0.03800
C323        C  0.29133030  0.13623352  0.45804728    -0.12300
C324        C  0.30256594  0.16386174  0.44877821     0.01300
C325        C  0.30424858  0.18936748  0.46249439    -0.10800
C326        C  0.29424789  0.18780837  0.48520967     0.03800
C327        C  0.28355233  0.15997218  0.49435914    -0.10300
H328        H  0.29192372  0.11631104  0.44769463     0.09400
H329        H  0.31311881  0.21065742  0.45538619     0.06900
H330        H  0.27707147  0.15844318  0.51203586     0.06800
N331        N  0.12553384  0.42257804  0.71219121    -0.26600
N332        N  0.12548146  0.43168266  0.69119471    -0.34400
C333        C  0.08838066  0.43701853  0.68472131     0.01800
C334        C  0.06374731  0.43100289  0.70248707     0.07800
C335        C  0.08828275  0.42195940  0.71969690    -0.05300
H336        H  0.07992338  0.44371226  0.66803040     0.08400
H337        H  0.07965130  0.41452305  0.73616909     0.09600
Cu338      Cu  0.17516848  0.43297947  0.67141638     0.44200
Cu339      Cu  0.17666320  0.40960145  0.72849296     0.42000
Cu340      Cu  0.26362429  0.39915905  0.69264655     0.43900
N341        N  0.22388156  0.42460639  0.65181074    -0.34000
N342        N  0.25546653  0.41022926  0.65888459    -0.28200
C343        C  0.27918028  0.40516619  0.64120485    -0.04300
C344        C  0.26183535  0.41754130  0.62232885     0.07900
C345        C  0.22694332  0.42967934  0.62975788     0.01700
H346        H  0.30689602  0.39340266  0.64200020     0.09300
H347        H  0.20449110  0.44018569  0.61965410     0.08400
N348        N  0.26355438  0.39460805  0.72756305    -0.35400
N349        N  0.23218502  0.39846820  0.74029272    -0.27600
C350        C  0.24235567  0.39479093  0.76185710    -0.02800
C351        C  0.28198606  0.38836789  0.76289332     0.05800
C352        C  0.29449320  0.38840287  0.74084550     0.03900
H353        H  0.22231216  0.39688701  0.77578347     0.09000
H354        H  0.32399882  0.38444138  0.73488602     0.07800
C355        C  0.29392965  0.38710064  0.56596607     0.03800
C356        C  0.29330528  0.41353928  0.55312004    -0.12300
C357        C  0.28301145  0.44117112  0.56272955     0.01300
C358        C  0.27338482  0.44229010  0.58552987    -0.10800
C359        C  0.27520561  0.41637597  0.59883103     0.03800
C360        C  0.28574861  0.38890977  0.58900143    -0.10300
H361        H  0.29916693  0.41239845  0.53535270     0.09400
H362        H  0.26434756  0.46338768  0.59292712     0.06900
H363        H  0.28468522  0.36867331  0.59895381     0.06800
N364        N  0.95814059  0.42519259  0.71132004    -0.26600
N365        N  0.95914848  0.43313111  0.69005321    -0.34400
C366        C  0.99669509  0.43725523  0.68393093     0.01800
C367        C  0.02051316  0.43154973  0.70218186     0.07800
C368        C  0.99508821  0.42402086  0.71929305    -0.05300
H369        H  0.00599237  0.44283513  0.66717183     0.08400
H370        H  0.00286839  0.41724965  0.73607510     0.09600
Cu371      Cu  0.91000945  0.43456539  0.66950872     0.44200
Cu372      Cu  0.90660107  0.41408887  0.72778128     0.42000
Cu373      Cu  0.82017249  0.40415948  0.69239831     0.43900
N374        N  0.85980738  0.42730600  0.65053696    -0.34000
N375        N  0.82768612  0.41450580  0.65845280    -0.28200
C376        C  0.80252463  0.40989502  0.64135444    -0.04300
C377        C  0.81937276  0.42087017  0.62192770     0.07900
C378        C  0.85562528  0.43174320  0.62840494     0.01700
H379        H  0.77418584  0.39920069  0.64289622     0.09300
H380        H  0.87808193  0.44089652  0.61763579     0.08400
N381        N  0.82024285  0.39854161  0.72724178    -0.35400
N382        N  0.85166605  0.40245243  0.73994589    -0.27600
C383        C  0.84205251  0.39758903  0.76145397    -0.02800
C384        C  0.80269004  0.39022678  0.76247515     0.05800
C385        C  0.78979153  0.39104323  0.74046712     0.03900
H386        H  0.86235134  0.39922401  0.77532389     0.09000
H387        H  0.76037947  0.38655944  0.73449150     0.07800
C388        C  0.78335147  0.38813695  0.56718713     0.03800
C389        C  0.79581327  0.39056744  0.58949326    -0.12300
C390        C  0.80401868  0.41874671  0.59884409     0.01300
C391        C  0.79942853  0.44464338  0.58570318    -0.10800
C392        C  0.78498598  0.44266610  0.56362682     0.03800
C393        C  0.77707402  0.41420161  0.55460838    -0.10300
H394        H  0.80026934  0.37049040  0.59933837     0.09400
H395        H  0.80730345  0.46623664  0.59266862     0.06900
H396        H  0.76684731  0.41219731  0.53750410     0.06800
N397        N  0.09462739  0.69041584  0.32193915    -0.26600
N398        N  0.09411864  0.69775408  0.34333181    -0.34400
C399        C  0.05712638  0.70418914  0.34937953     0.01800
C400        C  0.03307872  0.70046583  0.33095233     0.07800
C401        C  0.05785158  0.69186269  0.31379004    -0.05300
H402        H  0.04805636  0.70881534  0.36635051     0.08400
H403        H  0.04949026  0.68523991  0.29704724     0.09600
Cu404      Cu  0.14170787  0.69227798  0.36444146     0.44200
Cu405      Cu  0.14459129  0.67470876  0.30611327     0.42000
Cu406      Cu  0.22496901  0.65146181  0.34336503     0.43900
N407        N  0.18624621  0.67611890  0.38465964    -0.34000
N408        N  0.21570178  0.65943493  0.37744980    -0.28200
C409        C  0.23728771  0.65064780  0.39523192    -0.04300
C410        C  0.22076971  0.66285766  0.41439266     0.07900
C411        C  0.18860383  0.67888012  0.40696932     0.01700
H412        H  0.26349099  0.63704835  0.39425190     0.09300
H413        H  0.16788814  0.69119235  0.41712526     0.08400
N414        N  0.22758129  0.65073056  0.30838916    -0.35400
N415        N  0.19844990  0.65902416  0.29509993    -0.27600
C416        C  0.20994547  0.65644805  0.27368406    -0.02800
C417        C  0.24819716  0.64621643  0.27337894     0.05800
C418        C  0.25846742  0.64282988  0.29565269     0.03900
H419        H  0.19186639  0.66202923  0.25939686     0.09000
H420        H  0.28642889  0.63533714  0.30215553     0.07800
C421        C  0.24546169  0.68503293  0.47388945     0.03800
C422        C  0.25350695  0.65690304  0.48334338    -0.12300
C423        C  0.25234625  0.63045294  0.47044151     0.01300
C424        C  0.24417285  0.63273067  0.44736307    -0.10800
C425        C  0.23423129  0.66055652  0.43786520     0.03800
C426        C  0.23453857  0.68640929  0.45128248    -0.10300
H427        H  0.26023458  0.65559344  0.50101191     0.09400
H428        H  0.24413747  0.61287127  0.43696164     0.06900
H429        H  0.22600887  0.70768124  0.44406776     0.06800
N430        N  0.92903721  0.68628859  0.32308509    -0.26600
N431        N  0.92920051  0.69679269  0.34372243    -0.34400
C432        C  0.96581206  0.70528917  0.34913110     0.01800
C433        C  0.98992590  0.69982107  0.33101015     0.07800
C434        C  0.96557880  0.68796128  0.31470302    -0.05300
H435        H  0.97468436  0.71270815  0.36560031     0.08400
H436        H  0.97425843  0.67905818  0.29863045     0.09600
Cu437      Cu  0.88178178  0.69298368  0.36498615     0.44200
Cu438      Cu  0.88029320  0.66574723  0.30923860     0.42000
Cu439      Cu  0.80126758  0.64493142  0.34779338     0.43900
N440        N  0.83865648  0.67782725  0.38639534    -0.34000
N441        N  0.81078793  0.65857613  0.38079725    -0.28200
C442        C  0.79103934  0.65069994  0.39941721    -0.04300
C443        C  0.80699946  0.66620538  0.41736412     0.07900
C444        C  0.83695140  0.68318824  0.40844849     0.01700
H445        H  0.76679996  0.63506532  0.39984655     0.09300
H446        H  0.85713607  0.69748388  0.41749114     0.08400
N447        N  0.79892078  0.63890355  0.31315120    -0.35400
N448        N  0.82786806  0.64626325  0.29949258    -0.27600
C449        C  0.81679304  0.64090426  0.27831208    -0.02800
C450        C  0.77895321  0.62987006  0.27848355     0.05800
C451        C  0.76847147  0.62882744  0.30084365     0.03900
H452        H  0.83461795  0.64568847  0.26380790     0.09000
H453        H  0.74046805  0.62195051  0.30764360     0.07800
C454        C  0.78555564  0.69032817  0.47667199     0.03800
C455        C  0.78144031  0.66242742  0.48726353    -0.12300
C456        C  0.78575907  0.63548047  0.47517187     0.01300
C457        C  0.79210819  0.63685507  0.45195077    -0.10800
C458        C  0.79624273  0.66462922  0.44120176     0.03800
C459        C  0.79319415  0.69118218  0.45366836    -0.10300
H460        H  0.77507542  0.66173925  0.50497742     0.09400
H461        H  0.79585382  0.61636020  0.44243917     0.06900
H462        H  0.79707489  0.71262832  0.44545844     0.06800
N463        N  0.58671541  0.91966371  0.70634458    -0.26600
N464        N  0.58626112  0.92737239  0.68501853    -0.34400
C465        C  0.54906139  0.93294114  0.67878394     0.01800
C466        C  0.52491586  0.92846353  0.69703420     0.07800
C467        C  0.54976143  0.92012268  0.71424320    -0.05300
H468        H  0.54016250  0.93867376  0.66197435     0.08400
H469        H  0.54151699  0.91387010  0.73105981     0.09600
Cu470      Cu  0.63534430  0.92680860  0.66455404     0.44200
Cu471      Cu  0.63725612  0.90685574  0.72319207     0.42000
Cu472      Cu  0.72257137  0.89372738  0.68785118     0.43900
N473        N  0.68540556  0.91808884  0.64597218    -0.34000
N474        N  0.71659211  0.90425033  0.65413106    -0.28200
C475        C  0.74253888  0.89976738  0.63748806    -0.04300
C476        C  0.72709608  0.91185431  0.61808723     0.07900
C477        C  0.69095354  0.92333734  0.62407487     0.01700
H478        H  0.77072360  0.88894353  0.63942668     0.09300
H479        H  0.66978811  0.93398269  0.61318466     0.08400
N480        N  0.72285979  0.88970597  0.72252407    -0.35400
N481        N  0.69199556  0.89466108  0.73539639    -0.27600
C482        C  0.70250055  0.89110154  0.75693347    -0.02800
C483        C  0.74185584  0.88360030  0.75764505     0.05800
C484        C  0.75377674  0.88289166  0.73554661     0.03900
H485        H  0.68295695  0.89396310  0.77100743     0.09000
H486        H  0.78292123  0.87806816  0.72934570     0.07800
C487        C  0.76796018  0.88477751  0.56287098     0.03800
C488        C  0.75407441  0.88492970  0.58497559    -0.12300
C489        C  0.74468884  0.91198932  0.59560749     0.01300
C490        C  0.74973793  0.93911612  0.58417114    -0.10800
C491        C  0.76583473  0.93960182  0.56252138     0.03800
C492        C  0.77466903  0.91219094  0.55198984    -0.10300
H493        H  0.74884529  0.86390410  0.59353685     0.09400
H494        H  0.74067165  0.95980126  0.59211689     0.06900
H495        H  0.78542207  0.91210853  0.53497340     0.06800
N496        N  0.41981177  0.92238739  0.70710006    -0.26600
N497        N  0.42002367  0.93052709  0.68587864    -0.34400
C498        C  0.45726174  0.93504238  0.67934489     0.01800
C499        C  0.48173548  0.92941640  0.69730083     0.07800
C500        C  0.45701272  0.92155517  0.71467337    -0.05300
H501        H  0.46592457  0.94052255  0.66244919     0.08400
H502        H  0.46547587  0.91439857  0.73124832     0.09600
Cu503      Cu  0.37051221  0.93059026  0.66581461     0.44200
Cu504      Cu  0.36908055  0.90954925  0.72366434     0.42000
Cu505      Cu  0.28445118  0.89385840  0.68756678     0.43900
N506        N  0.32195890  0.92022450  0.64649095    -0.34000
N507        N  0.29143605  0.90484234  0.65384356    -0.28200
C508        C  0.26760937  0.89868905  0.63639202    -0.04300
C509        C  0.28371148  0.91137920  0.61734677     0.07900
C510        C  0.31804668  0.92484359  0.62442406     0.01700
H511        H  0.24066553  0.88596144  0.63746745     0.09300
H512        H  0.33959731  0.93595366  0.61407788     0.08400
N513        N  0.28425610  0.88966767  0.72238978    -0.35400
N514        N  0.31473748  0.89569020  0.73538375    -0.27600
C515        C  0.30444623  0.89162502  0.75688422    -0.02800
C516        C  0.26564803  0.88262968  0.75751955     0.05800
C517        C  0.25380388  0.88160231  0.73536448     0.03900
H518        H  0.32378740  0.89511924  0.77099543     0.09000
H519        H  0.22498986  0.87572109  0.72910546     0.07800
C520        C  0.25219741  0.87874594  0.56155672     0.03800
C521        C  0.26012022  0.88142387  0.58459672    -0.12300
C522        C  0.26989604  0.90929354  0.59399151     0.01300
C523        C  0.26996515  0.93494240  0.58046331    -0.10800
C524        C  0.26096561  0.93295635  0.55764760     0.03800
C525        C  0.25284398  0.90479465  0.54817851    -0.10300
H526        H  0.26042764  0.86160775  0.59505133     0.09400
H527        H  0.27753575  0.95651349  0.58765058     0.06900
H528        H  0.24785053  0.90319811  0.53035144     0.06800
C529        C  0.80547163  0.82183969  0.52537641    -0.13700
C530        C  0.77328856  0.80223680  0.52543929     0.16700
C531        C  0.73963318  0.80971847  0.53791490     0.03000
C532        C  0.73873110  0.83663996  0.55000761    -0.12200
C533        C  0.77118689  0.85608092  0.55035272    -0.03200
C534        C  0.80484660  0.84852960  0.53779939     0.02300
C535        C  0.77582633  0.77375618  0.51275304     0.09100
N536        N  0.70667031  0.78984020  0.53898727     0.65500
H537        H  0.71257143  0.84232328  0.55933061     0.18400
N538        N  0.83906304  0.86712943  0.53812604     0.75900
H539        H  0.83147366  0.81607505  0.51593396     0.09900
C540        C  0.75256423  0.76830850  0.49366968     0.03600
C541        C  0.75570445  0.74078049  0.48242984    -0.05100
C542        C  0.78240708  0.71875828  0.48955178    -0.23500
C543        C  0.80590794  0.72443784  0.50860052     0.12800
C544        C  0.80195513  0.75165758  0.52012915    -0.12700
N545        N  0.72673665  0.79086078  0.48508330     0.64500
H546        H  0.73775593  0.73677114  0.46779018     0.12300
N547        N  0.83556018  0.70372523  0.51563663     0.61100
H548        H  0.82010957  0.75596140  0.53464486     0.08500
O549        O  0.85368793  0.87633792  0.52003021    -0.40300
O550        O  0.85718447  0.87152792  0.55624255    -0.39500
O551        O  0.71118359  0.76333850  0.54588725    -0.39500
O552        O  0.67245995  0.79973321  0.53568758    -0.37200
O553        O  0.86096777  0.69485274  0.50181269    -0.38100
O554        O  0.84061685  0.69858828  0.53617966    -0.34300
O555        O  0.74027649  0.81602981  0.47934158    -0.35700
O556        O  0.69151949  0.78444906  0.48061612    -0.40000
C557        C  0.26253863  0.76555840  0.49356721    -0.13700
C558        C  0.24555744  0.76501361  0.51484525     0.16700
C559        C  0.22911705  0.73815891  0.52282464     0.03000
C560        C  0.22961303  0.71237917  0.50938076    -0.12200
C561        C  0.24669442  0.71271740  0.48796636    -0.03200
C562        C  0.26380371  0.73970689  0.48023334     0.02300
C563        C  0.24531981  0.79291761  0.52828490     0.09100
N564        N  0.21078604  0.73696951  0.54426108     0.65500
H565        H  0.21575050  0.69221259  0.51554926     0.18400
N566        N  0.28406094  0.74100255  0.45933388     0.75900
H567        H  0.27573599  0.78605749  0.48750490     0.09900
C568        C  0.27258779  0.79774186  0.54560783     0.03600
C569        C  0.27326284  0.82534492  0.55685786    -0.05100
C570        C  0.24700896  0.84850659  0.55117346    -0.23500
C571        C  0.21848203  0.84297110  0.53445143     0.12800
C572        C  0.21836301  0.81550749  0.52297104    -0.12700
N573        N  0.30106764  0.77541211  0.55116624     0.64500
H574        H  0.29569394  0.82912983  0.56936691     0.12300
N575        N  0.18880179  0.86462605  0.52935235     0.61100
H576        H  0.19687246  0.81163417  0.50994127     0.08500
O577        O  0.31540869  0.72636663  0.45672553    -0.40300
O578        O  0.27399395  0.76002263  0.44482501    -0.39500
O579        O  0.17545703  0.74496497  0.54626511    -0.39500
O580        O  0.22723806  0.72297287  0.56000154    -0.37200
O581        O  0.16601111  0.87371086  0.54452341    -0.38100
O582        O  0.18232665  0.87197428  0.50932493    -0.34300
O583        O  0.32978634  0.77088435  0.53831286    -0.35700
O584        O  0.30088047  0.76366900  0.57033465    -0.40000
C585        C  0.76182851  0.52226878  0.54424469    -0.13700
C586        C  0.77711749  0.52213014  0.52250835     0.16700
C587        C  0.79360326  0.49548260  0.51395826     0.03000
C588        C  0.79476159  0.46968908  0.52736685    -0.12200
C589        C  0.78025828  0.46993669  0.54940295    -0.03200
C590        C  0.76286518  0.49651637  0.55761755     0.02300
C591        C  0.77821249  0.55074784  0.50989088     0.09100
N592        N  0.81146413  0.49473927  0.49230636     0.65500
H593        H  0.80884510  0.44976588  0.52086560     0.18400
N594        N  0.74513594  0.49756228  0.57925203     0.75900
H595        H  0.74883883  0.54258266  0.55084103     0.09900
C596        C  0.75845718  0.55490061  0.48936237     0.03600
C597        C  0.76198261  0.58238332  0.47804173    -0.05100
C598        C  0.78458785  0.60599262  0.48691169    -0.23500
C599        C  0.80490149  0.60133424  0.50726644     0.12800
C600        C  0.80095351  0.57411102  0.51860789    -0.12700
N601        N  0.73356567  0.53201443  0.48028758     0.64500
H602        H  0.74587221  0.58566188  0.46263652     0.12300
N603        N  0.83158431  0.62322718  0.51599825     0.61100
H604        H  0.81699890  0.57071186  0.53403417     0.08500
O605        O  0.71495471  0.48206041  0.58316640    -0.40300
O606        O  0.75614167  0.51695799  0.59330100    -0.39500
O607        O  0.83994576  0.51186431  0.48801028    -0.39500
O608        O  0.80239377  0.47434928  0.47859531    -0.37200
O609        O  0.85918847  0.63271676  0.50389873    -0.38100
O610        O  0.83173033  0.62914063  0.53663542    -0.34300
O611        O  0.70599836  0.52141516  0.49191016    -0.35700
O612        O  0.73583722  0.52518038  0.45985318    -0.40000
C613        C  0.30684655  0.50530469  0.52294430    -0.13700
C614        C  0.27067039  0.52033125  0.52168540     0.16700
C615        C  0.23843355  0.50878095  0.53372370     0.03000
C616        C  0.24305342  0.48312508  0.54704358    -0.12200
C617        C  0.27939620  0.46842147  0.54855790    -0.03200
C618        C  0.31139935  0.47961744  0.53621227     0.02300
C619        C  0.26722923  0.54796674  0.50777436     0.09100
N620        N  0.20103160  0.52324864  0.53302613     0.65500
H621        H  0.21815695  0.47464759  0.55625902     0.18400
N622        N  0.34909138  0.46573260  0.53757828     0.75900
H623        H  0.33172211  0.51361884  0.51364558     0.09900
C624        C  0.29202154  0.57280325  0.51138661     0.03600
C625        C  0.28813126  0.59854591  0.49817639    -0.05100
C626        C  0.25870246  0.60085907  0.48172967    -0.23500
C627        C  0.23445257  0.57558824  0.47771897     0.12800
C628        C  0.23937852  0.54938727  0.49047827    -0.12700
N629        N  0.31989305  0.57289960  0.52927232     0.64500
H630        H  0.30747998  0.61727120  0.50138157     0.12300
N631        N  0.20336955  0.57649561  0.46163427     0.61100
H632        H  0.22061462  0.53033030  0.48726278     0.08500
O633        O  0.37291990  0.47390155  0.55254924    -0.40300
O634        O  0.36090744  0.44935818  0.52175159    -0.39500
O635        O  0.17235501  0.51034242  0.52374617    -0.39500
O636        O  0.19533595  0.54674429  0.54432823    -0.37200
O637        O  0.20261479  0.55771373  0.44584426    -0.38100
O638        O  0.17427605  0.59348815  0.46474487    -0.34300
O639        O  0.35604635  0.57509085  0.52507589    -0.35700
O640        O  0.30813618  0.57501100  0.54919946    -0.40000
C641        C  0.29356466  0.99467358  0.51806283    -0.13700
C642        C  0.26452436  0.01643185  0.52169504     0.16700
C643        C  0.23286193  0.00972785  0.53595202     0.03000
C644        C  0.23151931  0.98204412  0.54704542    -0.12200
C645        C  0.26109034  0.96056081  0.54385434    -0.03200
C646        C  0.29190732  0.96680733  0.52889494     0.02300
C647        C  0.26866782  0.04649090  0.51132543     0.09100
N648        N  0.20252846  0.03120106  0.53983535     0.65500
H649        H  0.20773508  0.97750198  0.55850897     0.18400
N650        N  0.32259152  0.94555107  0.52530018     0.75900
H651        H  0.31792129  0.99956132  0.50708251     0.09900
C652        C  0.29428866  0.06795610  0.52053216     0.03600
C653        C  0.29746855  0.09640114  0.51078118    -0.05100
C654        C  0.27579772  0.10398636  0.49157137    -0.23500
C655        C  0.25006384  0.08233828  0.48232988     0.12800
C656        C  0.24671818  0.05388691  0.49227356    -0.12700
N657        N  0.31752403  0.06102514  0.53974071     0.64500
H658        H  0.31787466  0.11236078  0.51792319     0.12300
N659        N  0.22637641  0.08912632  0.46324829     0.61100
H660        H  0.22671485  0.03757279  0.48521063     0.08500
O661        O  0.35471878  0.94835939  0.53559049    -0.40300
O662        O  0.31980898  0.92690501  0.50950345    -0.39500
O663        O  0.16985120  0.02832922  0.53013061    -0.39500
O664        O  0.20637155  0.05032767  0.55523649    -0.37200
O665        O  0.19968300  0.10863366  0.46467465    -0.38100
O666        O  0.22918844  0.07339311  0.44577872    -0.34300
O667        O  0.34954185  0.04716715  0.53744702    -0.35700
O668        O  0.30858242  0.07192693  0.55851887    -0.40000
C669        C  0.26588828  0.25294073  0.52326053    -0.13700
C670        C  0.29994916  0.27059640  0.52255592     0.16700
C671        C  0.33302191  0.25984101  0.51097944     0.03000
C672        C  0.33096272  0.23250611  0.49939727    -0.12200
C673        C  0.29632949  0.21534657  0.49928491    -0.03200
C674        C  0.26388602  0.22546007  0.51186106     0.02300
C675        C  0.29983637  0.30066855  0.53326674     0.09100
N676        N  0.36838842  0.27700326  0.51014381     0.65500
H677        H  0.35630388  0.22489461  0.49010912     0.18400
N678        N  0.22805808  0.20883657  0.51234290     0.75900
H679        H  0.24042733  0.26089687  0.53227823     0.09900
C680        C  0.27600750  0.32379695  0.52480161     0.03600
C681        C  0.27495624  0.35166564  0.53556439    -0.05100
C682        C  0.29788275  0.35739067  0.55466182    -0.23500
C683        C  0.32209609  0.33420932  0.56305694     0.12800
C684        C  0.32266865  0.30607963  0.55238953    -0.12700
N685        N  0.25309833  0.31938223  0.50503380     0.64500
H686        H  0.25578406  0.36889002  0.52900218     0.12300
N687        N  0.34694419  0.33906054  0.58200672     0.61100
H688        H  0.34112528  0.28842789  0.55897762     0.08500
O689        O  0.20440144  0.21058588  0.49616164    -0.40300
O690        O  0.21753783  0.19602959  0.53013990    -0.39500
O691        O  0.39825007  0.26839773  0.52084129    -0.39500
O692        O  0.37102733  0.29895838  0.49696485    -0.37200
O693        O  0.37498424  0.35745469  0.58076630    -0.38100
O694        O  0.34377329  0.32253524  0.59900704    -0.34300
O695        O  0.21613679  0.32001393  0.50608112    -0.35700
O696        O  0.26973458  0.31826385  0.48622729    -0.40000
C697        C  0.78401997  0.02214559  0.54918084    -0.13700
C698        C  0.77093255  0.02373297  0.52697892     0.16700
C699        C  0.75842240  0.99738217  0.51615924     0.03000
C700        C  0.75797275  0.97017777  0.52780048    -0.12200
C701        C  0.77032168  0.96849192  0.55022337    -0.03200
C702        C  0.78446931  0.99482577  0.56077029     0.02300
C703        C  0.77116372  0.05305393  0.51528493     0.09100
N704        N  0.74444513  0.99815352  0.49363280     0.65500
H705        H  0.74644843  0.95053868  0.51945534     0.18400
N706        N  0.80066598  0.99408356  0.58288552     0.75900
H707        H  0.79483314  0.04215727  0.55735855     0.09900
C708        C  0.74963416  0.07754409  0.52365945     0.03600
C709        C  0.75140984  0.10527985  0.51282295    -0.05100
C710        C  0.77427193  0.10924737  0.49351185    -0.23500
C711        C  0.79663397  0.08485598  0.48541598     0.12800
C712        C  0.79454906  0.05696463  0.49621371    -0.12700
N713        N  0.72450130  0.07421243  0.54262587     0.64500
H714        H  0.73349011  0.12348063  0.51903525     0.12300
N715        N  0.82282206  0.08838715  0.46691368     0.61100
H716        H  0.81210200  0.03850806  0.49009406     0.08500
O717        O  0.79030457  0.01332269  0.59719727    -0.40300
O718        O  0.82812236  0.97611824  0.58747513    -0.39500
O719        O  0.76302097  0.98457726  0.47846043    -0.39500
O720        O  0.71159694  0.00983523  0.48928987    -0.37200
O721        O  0.85002394  0.10755139  0.46787824    -0.38100
O722        O  0.82159557  0.07021805  0.45074075    -0.34300
O723        O  0.72965292  0.09032357  0.55973050    -0.35700
O724        O  0.69512998  0.05703405  0.54157061    -0.40000
C725        C  0.74532110  0.25274321  0.52699353    -0.13700
C726        C  0.76799185  0.27651197  0.51876843     0.16700
C727        C  0.78925841  0.27261870  0.49881892     0.03000
C728        C  0.78752130  0.24525142  0.48737443    -0.12200
C729        C  0.76479324  0.22138517  0.49549070    -0.03200
C730        C  0.74353337  0.22529512  0.51555433     0.02300
C731        C  0.77094484  0.30471231  0.53178265     0.09100
N732        N  0.81237646  0.29645822  0.48985586     0.65500
H733        H  0.80413617  0.24258647  0.47210764     0.18400
N734        N  0.71924036  0.20193014  0.52422599     0.75900
H735        H  0.72907641  0.25550415  0.54237718     0.09900
C736        C  0.73843113  0.32385663  0.53460920     0.03600
C737        C  0.74258959  0.35055054  0.54680525    -0.05100
C738        C  0.77880922  0.35845800  0.55634397    -0.23500
C739        C  0.81105029  0.33891456  0.55392334     0.12800
C740        C  0.80689526  0.31228701  0.54172346    -0.12700
N741        N  0.70149233  0.31705238  0.52445166     0.64500
H742        H  0.71775490  0.36548460  0.54841631     0.12300
N743        N  0.84870915  0.34655624  0.56277737     0.61100
H744        H  0.83193064  0.29762752  0.53976221     0.08500
O745        O  0.72822787  0.18941789  0.54242605    -0.40300
O746        O  0.68599802  0.19712480  0.51563400    -0.39500
O747        O  0.84929716  0.29441591  0.48972087    -0.39500
O748        O  0.79587198  0.31785168  0.47977480    -0.37200
O749        O  0.86045091  0.33450063  0.58063395    -0.38100
O750        O  0.87248171  0.36136050  0.55100702    -0.34300
O751        O  0.67177575  0.31242453  0.53651213    -0.35700
O752        O  0.69746863  0.31941878  0.50356353    -0.40000
C753        C  0.80959843  0.19055887  0.02661999    -0.13700
C754        C  0.78409569  0.21286132  0.03443767     0.16700
C755        C  0.76047227  0.20695100  0.05321070     0.03000
C756        C  0.76271516  0.17902131  0.06391011    -0.12200
C757        C  0.78805293  0.15652598  0.05602169    -0.03200
C758        C  0.81186593  0.16259989  0.03723484     0.02300
C759        C  0.78151242  0.24169989  0.02219164     0.09100
N760        N  0.73421910  0.22919987  0.06163768     0.65500
H761        H  0.74420903  0.17473567  0.07821717     0.18400
N762        N  0.83928236  0.14091876  0.02909521     0.75900
H763        H  0.82785947  0.19492169  0.01222129     0.09900
C764        C  0.81260751  0.26250652  0.02248040     0.03600
C765        C  0.81011352  0.28881179  0.00972531    -0.05100
C766        C  0.77702457  0.29473205  0.99640224    -0.23500
C767        C  0.74591241  0.27380322  0.99613952     0.12800
C768        C  0.74840510  0.24757270  0.00897523    -0.12700
N769        N  0.84683533  0.25721322  0.03571765     0.64500
H770        H  0.83428497  0.30452685  0.01003358     0.12300
N771        N  0.71119333  0.27918923  0.98334362     0.61100
H772        H  0.72450416  0.23162585  0.00853379     0.08500
O773        O  0.86936842  0.13462598  0.04047175    -0.40300
O774        O  0.83599411  0.13086120  0.00945969    -0.39500
O775        O  0.69824977  0.22799006  0.05670822    -0.39500
O776        O  0.74586429  0.24740557  0.07637655    -0.37200
O777        O  0.68553147  0.29705444  0.99065681    -0.38100
O778        O  0.70332481  0.26266425  0.96680035    -0.34300
O779        O  0.87888175  0.25072033  0.02635842    -0.35700
O780        O  0.84621370  0.26267093  0.05640790    -0.40000
C781        C  0.25850139  0.25643515  0.02077158    -0.13700
C782        C  0.28704128  0.23427536  0.01754808     0.16700
C783        C  0.31793327  0.23964890  0.00244763     0.03000
C784        C  0.31995038  0.26714682  0.99109033    -0.12200
C785        C  0.29076620  0.28921405  0.99379246    -0.03200
C786        C  0.25959877  0.28350920  0.00887549     0.02300
C787        C  0.28324254  0.20550772  0.02984928     0.09100
N788        N  0.34634514  0.21689759  0.99767623     0.65500
H789        H  0.34407437  0.27098678  0.97971917     0.18400
N790        N  0.22755659  0.30401646  0.01136750     0.75900
H791        H  0.23444298  0.25221947  0.03213482     0.09900
C792        C  0.31011222  0.19695655  0.04666777     0.03600
C793        C  0.30443353  0.16995786  0.05831737    -0.05100
C794        C  0.27221566  0.15138386  0.05361250    -0.23500
C795        C  0.24567656  0.15986637  0.03661573     0.12800
C796        C  0.25142333  0.18668453  0.02491615    -0.12700
N797        N  0.34255249  0.21580876  0.05254502     0.64500
H798        H  0.32502664  0.16357727  0.07124917     0.12300
N799        N  0.21190727  0.14202413  0.03163334     0.61100
H800        H  0.23060611  0.19309614  0.01210038     0.08500
O801        O  0.21492038  0.31038575  0.03061819    -0.40300
O802        O  0.20789709  0.31173411  0.99444377    -0.39500
O803        O  0.33547970  0.19236827  0.98913600    -0.39500
O804        O  0.38248473  0.22280611  0.99898631    -0.37200
O805        O  0.18277082  0.14252487  0.04461118    -0.38100
O806        O  0.20901188  0.12919246  0.01289551    -0.34300
O807        O  0.33660273  0.24251522  0.05865368    -0.35700
O808        O  0.37658333  0.20485529  0.05412956    -0.40000
C809        C  0.75191154  0.01239638  0.02340005    -0.13700
C810        C  0.78036861  0.99007156  0.02639767     0.16700
C811        C  0.81062681  0.99467473  0.04207559     0.03000
C812        C  0.81215152  0.02143150  0.05437540    -0.12200
C813        C  0.78349277  0.04383618  0.05164632    -0.03200
C814        C  0.75306991  0.03905868  0.03589822     0.02300
C815        C  0.77896118  0.96249586  0.01250190     0.09100
N816        N  0.83954798  0.97204957  0.04601026     0.65500
H817        H  0.83587536  0.02466928  0.06615170     0.18400
N818        N  0.72245865  0.06057870  0.03283206     0.75900
H819        H  0.72859138  0.00901939  0.01138018     0.09900
C820        C  0.74931130  0.94090180  0.01541900     0.03600
C821        C  0.74950107  0.91464978  0.00251085    -0.05100
C822        C  0.77908773  0.90929286  0.98663671    -0.23500
C823        C  0.80808091  0.93149860  0.98322509     0.12800
C824        C  0.80772218  0.95781324  0.99612183    -0.12700
N825        N  0.71974950  0.94478002  0.03208460     0.64500
H826        H  0.72688664  0.89804997  0.00525018     0.12300
N827        N  0.83917224  0.92711574  0.96754765     0.61100
H828        H  0.83044888  0.97440576  0.99367040     0.08500
O829        O  0.71851611  0.07342656  0.01418906    -0.40300
O830        O  0.69569945  0.06290458  0.04727633    -0.39500
O831        O  0.87534389  0.97763408  0.04264463    -0.39500
O832        O  0.82979472  0.94764325  0.05507996    -0.37200
O833        O  0.84159383  0.94381401  0.95060257    -0.38100
O834        O  0.86727046  0.90986194  0.97234665    -0.34300
O835        O  0.68445190  0.94848142  0.02633938    -0.35700
O836        O  0.72809030  0.94072104  0.05240657    -0.40000
C837        C  0.21107002  0.94302002  0.01383095    -0.13700
C838        C  0.24606353  0.95959302  0.01302675     0.16700
C839        C  0.27762416  0.94867168  0.00011287     0.03000
C840        C  0.27361447  0.92178772  0.98808785    -0.12200
C841        C  0.23857719  0.90537318  0.98887909    -0.03200
C842        C  0.20722036  0.91605199  0.00197952     0.02300
C843        C  0.24938540  0.98773901  0.02627444     0.09100
N844        N  0.31360739  0.96498475  0.99868928     0.65500
H845        H  0.29787656  0.91369039  0.97812336     0.18400
N846        N  0.17117090  0.89979340  0.00323908     0.75900
H847        H  0.18681822  0.95088928  0.02390110     0.09900
C848        C  0.22375570  0.01206187  0.02256559     0.03600
C849        C  0.22687206  0.03801760  0.03569001    -0.05100
C850        C  0.25516564  0.04025216  0.05267978    -0.23500
C851        C  0.28036122  0.01575699  0.05666665     0.12800
C852        C  0.27734823  0.98979474  0.04348262    -0.12700
N853        N  0.19502582  0.01098717  0.00515330     0.64500
H854        H  0.20731977  0.05664076  0.03248744     0.12300
N855        N  0.30999148  0.01732443  0.07354127     0.61100
H856        H  0.29681600  0.97114785  0.04672527     0.08500
O857        O  0.14278070  0.90707495  0.99083330    -0.40300
O858        O  0.16590495  0.88117147  0.01879653    -0.39500
O859        O  0.34429161  0.95458201  0.00759147    -0.39500
O860        O  0.31587316  0.98761634  0.98613910    -0.37200
O861        O  0.34332619  0.02783957  0.06882673    -0.38100
O862        O  0.30487253  0.00420071  0.09196910    -0.34300
O863        O  0.15899463  0.01157193  0.00994969    -0.35700
O864        O  0.20559086  0.01285070  0.98500454    -0.40000
C865        C  0.74882147  0.51298854  0.01859450    -0.13700
C866        C  0.77639916  0.49154103  0.02554978     0.16700
C867        C  0.80186235  0.49849021  0.04341179     0.03000
C868        C  0.79859885  0.52616782  0.05442304    -0.12200
C869        C  0.77042621  0.54731798  0.04778182    -0.03200
C870        C  0.74571255  0.54071355  0.02952324     0.02300
C871        C  0.77784782  0.46196546  0.01410449     0.09100
N872        N  0.83020433  0.47723030  0.05105872     0.65500
H873        H  0.81771635  0.53100984  0.06842312     0.18400
N874        N  0.71614309  0.56140253  0.02255858     0.75900
H875        H  0.72934927  0.50803251  0.00478189     0.09900
C876        C  0.74536341  0.44241136  0.01459469     0.03600
C877        C  0.74698970  0.41488126  0.00335423    -0.05100
C878        C  0.78049709  0.40647463  0.99130968    -0.23500
C879        C  0.81284317  0.42608389  0.99054430     0.12800
C880        C  0.81145994  0.45355104  0.00204346    -0.12700
N881        N  0.71076684  0.45000819  0.02681764     0.64500
H882        H  0.72199875  0.39995484  0.00403741     0.12300
N883        N  0.84736015  0.41821096  0.97837559     0.61100
H884        H  0.83642516  0.46848308  0.00135000     0.08500
O885        O  0.68230932  0.56002886  0.03102025    -0.40300
O886        O  0.72204794  0.57793014  0.00580827    -0.39500
O887        O  0.86630459  0.48235820  0.04841033    -0.39500
O888        O  0.81945334  0.45533015  0.06287987    -0.37200
O889        O  0.87598191  0.40633693  0.98840298    -0.38100
O890        O  0.85118515  0.42659090  0.95837095    -0.34300
O891        O  0.67979642  0.45697897  0.01648393    -0.35700
O892        O  0.70971601  0.44600680  0.04767420    -0.40000
C893        C  0.80532530  0.69618293  0.02861541    -0.13700
C894        C  0.77287144  0.71561660  0.02916711     0.16700
C895        C  0.73888375  0.70669029  0.04086422     0.03000
C896        C  0.73801038  0.67895118  0.05182587    -0.12200
C897        C  0.77058537  0.65970437  0.05147027    -0.03200
C898        C  0.80449620  0.66851560  0.03972807     0.02300
C899        C  0.77429291  0.74431093  0.01647886     0.09100
N900        N  0.70514340  0.72568789  0.04199698     0.65500
H901        H  0.71169630  0.67234934  0.06059448     0.18400
N902        N  0.83867438  0.64996473  0.03942862     0.75900
H903        H  0.83133808  0.70244657  0.01945158     0.09900
C904        C  0.80462800  0.76543624  0.01985519     0.03600
C905        C  0.80586519  0.79163626  0.00693140    -0.05100
C906        C  0.77718879  0.79732858  0.99064933    -0.23500
C907        C  0.74694705  0.77628691  0.98723872     0.12800
C908        C  0.74584391  0.74996730  0.99998795    -0.12700
N909        N  0.83398641  0.76087387  0.03661158     0.64500
H910        H  0.82920900  0.80764242  0.00964758     0.12300
N911        N  0.71650003  0.78180083  0.97132584     0.61100
H912        H  0.72278017  0.73385711  0.99693606     0.08500
O913        O  0.86148187  0.64981815  0.05605538    -0.40300
O914        O  0.84907234  0.63736037  0.02150157    -0.39500
O915        O  0.67292178  0.71695979  0.03385649    -0.39500
O916        O  0.70624661  0.74934576  0.05356517    -0.37200
O917        O  0.71606343  0.76766192  0.95305236    -0.38100
O918        O  0.68742880  0.79772682  0.97674646    -0.34300
O919        O  0.86969003  0.75946794  0.03115344    -0.35700
O920        O  0.82473007  0.76171343  0.05701116    -0.40000
C921        C  0.30852194  0.49954992  0.03346484    -0.13700
C922        C  0.27573245  0.48889786  0.02166281     0.16700
C923        C  0.24077597  0.50581096  0.02192851     0.03000
C924        C  0.23915836  0.53288570  0.03381738    -0.12200
C925        C  0.27209750  0.54377874  0.04540295    -0.03200
C926        C  0.30718314  0.52689215  0.04503971     0.02300
C927        C  0.27810645  0.45948827  0.00999395     0.09100
N928        N  0.20691226  0.49610082  0.00979293     0.65500
H929        H  0.21207589  0.54548143  0.03395813     0.18400
N930        N  0.34211825  0.53768274  0.05563466     0.75900
H931        H  0.33537870  0.48669229  0.03353753     0.09900
C932        C  0.30676829  0.45380180  0.99359406     0.03600
C933        C  0.30925913  0.42540497  0.98367310    -0.05100
C934        C  0.28294358  0.40230645  0.98933173    -0.23500
C935        C  0.25408529  0.40811762  0.00580113     0.12800
C936        C  0.25239371  0.43638249  0.01612629    -0.12700
N937        N  0.33306305  0.47685247  0.98646579     0.64500
H938        H  0.33199675  0.42146143  0.97145808     0.12300
N939        N  0.22534263  0.38611801  0.01171077     0.61100
H940        H  0.23057793  0.44044057  0.02885037     0.08500
O941        O  0.35868611  0.56104338  0.04842978    -0.40300
O942        O  0.35889524  0.52206246  0.07038868    -0.39500
O943        O  0.17627688  0.48857817  0.02018475    -0.39500
O944        O  0.20580590  0.49901592  0.98883253    -0.37200
O945        O  0.20315618  0.37533195  0.99684118    -0.38100
O946        O  0.21809309  0.38093537  0.03202206    -0.34300
O947        O  0.36945637  0.47405337  0.98975336    -0.35700
O948        O  0.32062864  0.49771367  0.97412531    -0.40000
C949        C  0.21562804  0.70412860  0.04233230    -0.13700
C950        C  0.23285806  0.70773277  0.02127168     0.16700
C951        C  0.25478006  0.68414565  0.01200185     0.03000
C952        C  0.26024546  0.65769214  0.02411442    -0.12200
C953        C  0.24344637  0.65386118  0.04540468    -0.03200
C954        C  0.22029602  0.67735150  0.05437437     0.02300
C955        C  0.23104912  0.73719887  0.01006887     0.09100
N956        N  0.27214645  0.68698832  0.99038086     0.65500
H957        H  0.27854863  0.64033773  0.01697518     0.18400
N958        N  0.20099712  0.67433126  0.07548116     0.75900
H959        H  0.19868398  0.72227669  0.04948027     0.09900
C960        C  0.19767811  0.74642531  0.99805081     0.03600
C961        C  0.19754655  0.77438981  0.98737536    -0.05100
C962        C  0.23037881  0.79341449  0.98856013    -0.23500
C963        C  0.26354031  0.78422494  0.00089501     0.12800
C964        C  0.26359395  0.75630235  0.01154583    -0.12700
N965        N  0.16409309  0.72739790  0.99623047     0.64500
H966        H  0.17187219  0.78121257  0.97803000     0.12300
N967        N  0.29801850  0.80241029  0.00191945     0.61100
H968        H  0.28935133  0.74927233  0.02073447     0.08500
O969        O  0.17596720  0.65384644  0.07832161    -0.40300
O970        O  0.20570602  0.69402303  0.09041738    -0.39500
O971        O  0.30892569  0.68890317  0.98850871    -0.39500
O972        O  0.25123663  0.68378792  0.97312317    -0.37200
O973        O  0.30793407  0.81445289  0.02016466    -0.38100
O974        O  0.32152072  0.80265243  0.98565039    -0.34300
O975        O  0.13304755  0.73394303  0.00660379    -0.35700
O976        O  0.16376259  0.70641976  0.98206474    -0.40000
loop_ 
_geom_bond_atom_site_label_1 
_geom_bond_atom_site_label_2 
_geom_bond_distance 
_geom_bond_site_symmetry_2 
_ccdc_geom_bond_type 
N1            N2   1.321       .  A
N1            C5   1.347       .  A
N1           Cu9   2.075       .  S
N2            C3   1.343       .  A
N2           Cu8   2.068       .  S
C3            C4   1.382       .  A
C3            H6   1.082       .  S
C4            C5   1.385       .  A
C4           C37   1.472       .  S
C5            H7   1.082       .  S
Cu8          N11   2.067       .  S
Cu9          N19   2.076       .  S
Cu10         N12   2.091       .  S
Cu10         N18   2.092       .  S
N11          N12   1.322       .  A
N11          C15   1.343       .  A
N12          C13   1.349       .  A
C13          C14   1.387       .  A
C13          H16   1.081       .  S
C14          C15   1.381       .  A
C14          C27   1.477       .  S
C15          H17   1.082       .  S
N18          N19   1.324       .  A
N18          C22   1.348       .  A
N19          C20   1.345       .  A
C20          C21   1.382       .  A
C20          H23   1.082       .  S
C21          C22   1.386       .  A
C21         C417   1.475       .  S
C22          H24   1.082       .  S
C25          C26   1.409       .  A
C25          C30   1.408       .  A
C25         C953   1.493       .  S
C26          C27   1.404       .  A
C26          H31   1.083       .  S
C27          C28   1.403       .  A
C28          C29   1.404       .  A
C28          H32   1.083       .  S
C29          C30   1.404       .  A
C29         C925   1.488       .  S
C30          H33   1.084       .  S
N34          N35   1.322       .  A
N34          C38   1.348       .  A
N34         Cu42   2.077       .  S
N35          C36   1.343       .  A
N35         Cu41   2.070       .  S
C36          C37   1.382       .  A
C36          H39   1.082       .  S
C37          C38   1.385       .  A
C38          H40   1.082       .  S
Cu41         N44   2.070       .  S
Cu42         N52   2.077       .  S
Cu43         N45   2.084       .  S
Cu43         N51   2.085       .  S
N44          N45   1.322       .  A
N44          C48   1.344       .  A
N45          C46   1.349       .  A
C46          C47   1.385       .  A
C46          H49   1.081       .  S
C47          C48   1.381       .  A
C47          C62   1.473       .  S
C48          H50   1.082       .  S
N51          N52   1.324       .  A
N51          C55   1.345       .  A
N52          C53   1.347       .  A
C53          C54   1.383       .  A
C53          H56   1.082       .  S
C54          C55   1.384       .  A
C54         C450   1.474       .  S
C55          H57   1.083       .  S
C58          C59   1.407       .  A
C58          C63   1.406       .  A
C58         C897   1.485       .  S
C59          C60   1.405       .  A
C59          H64   1.082       .  S
C60          C61   1.404       .  A
C60         C869   1.483       .  S
C61          C62   1.402       .  A
C61          H65   1.084       .  S
C62          C63   1.402       .  A
C63          H66   1.085       .  S
N67          N68   1.320       .  A
N67          C71   1.346       .  A
N67         Cu75   2.070       .  S
N68          C69   1.342       .  A
N68         Cu74   2.061       .  S
C69          C70   1.382       .  A
C69          H72   1.082       .  S
C70          C71   1.385       .  A
C70         C103   1.470   1_455  S
C71          H73   1.082       .  S
Cu74         N77   2.062       .  S
Cu75         N85   2.071       .  S
Cu76         N78   2.099       .  S
Cu76         N84   2.101       .  S
N77          N78   1.323       .  A
N77          C81   1.341       .  A
N78          C79   1.352       .  A
C79          C80   1.389       .  A
C79          H82   1.082       .  S
C80          C81   1.379       .  A
C80          C93   1.477       .  S
C81          H83   1.082       .  S
N84          N85   1.325       .  A
N84          C88   1.349       .  A
N85          C86   1.344       .  A
C86          C87   1.380       .  A
C86          H89   1.082       .  S
C87          C88   1.388       .  A
C87         C516   1.476       .  S
C88          H90   1.083       .  S
C91          C92   1.401       .  A
C91          C96   1.404       .  A
C91         C962   1.483       .  S
C92          C93   1.403       .  A
C92          H97   1.085       .  S
C93          C94   1.406       .  A
C94          C95   1.407       .  A
C94          H98   1.084       .  S
C95          C96   1.404       .  A
C95         C841   1.480       .  S
C96          H99   1.083   1_556  S
N100        N101   1.320       .  A
N100        C104   1.346       .  A
N100       Cu108   2.068       .  S
N101        C102   1.343       .  A
N101       Cu107   2.067       .  S
C102        C103   1.383       .  A
C102        H105   1.082       .  S
C103        C104   1.384       .  A
C104        H106   1.082       .  S
Cu107       N110   2.067       .  S
Cu108       N118   2.069       .  S
Cu109       N111   2.093       .  S
Cu109       N117   2.094       .  S
N110        N111   1.323       .  A
N110        C114   1.342       .  A
N111        C112   1.351       .  A
C112        C113   1.387       .  A
C112        H115   1.081       .  S
C113        C114   1.380       .  A
C113        C126   1.476       .  S
C114        H116   1.082       .  S
N117        N118   1.324       .  A
N117        C121   1.349       .  A
N118        C119   1.343       .  A
C119        C120   1.380       .  A
C119        H122   1.082       .  S
C120        C121   1.387       .  A
C120        C483   1.474       .  S
C121        H123   1.082       .  S
C124        C125   1.401       .  A
C124        C129   1.402       .  A
C124        C906   1.482       .  S
C125        C126   1.403       .  A
C125        H130   1.084       .  S
C126        C127   1.406       .  A
C127        C128   1.410       .  A
C127        H131   1.083       .  S
C128        C129   1.407       .  A
C128        C822   1.491       .  S
C129        H132   1.085   1_556  S
N133        N134   1.322       .  A
N133        C137   1.346       .  A
N133       Cu141   2.073       .  S
N134        C135   1.346       .  A
N134       Cu140   2.078       .  S
C135        C136   1.385       .  A
C135        H138   1.081       .  S
C136        C137   1.383       .  A
C136        C169   1.473       .  S
C137        H139   1.082       .  S
Cu140       N143   2.078       .  S
Cu141       N151   2.074       .  S
Cu142       N144   2.094       .  S
Cu142       N150   2.094       .  S
N143        N144   1.323       .  A
N143        C147   1.345       .  A
N144        C145   1.349       .  A
C145        C146   1.387       .  A
C145        H148   1.081       .  S
C146        C147   1.382       .  A
C146        C161   1.479       .  S
C147        H149   1.082       .  S
N150        N151   1.323       .  A
N150        C154   1.348       .  A
N151        C152   1.346       .  A
C152        C153   1.383       .  A
C152        H155   1.082       .  S
C153        C154   1.387       .  A
C153        C351   1.478       .  S
C154        H156   1.082       .  S
C157        C158   1.410       .  A
C157        C162   1.409       .  A
C157        C785   1.498       .  S
C158        C159   1.410       .  A
C158        H163   1.081   1_556  S
C159        C160   1.408       .  A
C159        C934   1.496       .  S
C160        C161   1.401       .  A
C160        H164   1.084       .  S
C161        C162   1.404       .  A
C162        H165   1.084       .  S
N166        N167   1.321       .  A
N166        C170   1.346       .  A
N166       Cu174   2.075       .  S
N167        C168   1.345       .  A
N167       Cu173   2.068       .  S
C168        C169   1.383       .  A
C168        H171   1.082       .  S
C169        C170   1.385       .  A
C170        H172   1.081       .  S
Cu173       N176   2.067       .  S
Cu174       N184   2.076       .  S
Cu175       N177   2.104       .  S
Cu175       N183   2.105       .  S
N176        N177   1.323       .  A
N176        C180   1.343       .  A
N177        C178   1.352       .  A
C178        C179   1.390       .  A
C178        H181   1.082       .  S
C179        C180   1.380       .  A
C179        C194   1.479       .  S
C180        H182   1.082       .  S
N183        N184   1.324       .  A
N183        C187   1.350       .  A
N184        C185   1.346       .  A
C185        C186   1.382       .  A
C185        H188   1.082       .  S
C186        C187   1.389       .  A
C186        C384   1.480       .  S
C187        H189   1.082       .  S
C190        C191   1.404       .  A
C190        C195   1.406       .  A
C190        C766   1.489       .  S
C191        C192   1.405       .  A
C191        H196   1.085   1_556  S
C192        C193   1.406       .  A
C192        C878   1.480       .  S
C193        C194   1.405       .  A
C193        H197   1.084       .  S
C194        C195   1.407       .  A
C195        H198   1.083       .  S
N199        N200   1.320       .  A
N199        C203   1.346       .  A
N199       Cu207   2.074       .  S
N200        C201   1.344       .  A
N200       Cu206   2.066       .  S
C201        C202   1.383       .  A
C201        H204   1.082       .  S
C202        C203   1.385       .  A
C202        C235   1.472       .  S
C203        H205   1.082       .  S
Cu206       N209   2.066       .  S
Cu207       N217   2.075       .  S
Cu208       N210   2.106       .  S
Cu208       N216   2.107       .  S
N209        N210   1.323       .  A
N209        C213   1.342       .  A
N210        C211   1.353       .  A
C211        C212   1.392       .  A
C211        H214   1.081       .  S
C212        C213   1.380       .  A
C212        C227   1.482       .  S
C213        H215   1.082       .  S
N216        N217   1.325       .  A
N216        C220   1.350       .  A
N217        C218   1.345       .  A
C218        C219   1.381       .  A
C218        H221   1.083       .  S
C219        C220   1.389       .  A
C219        C318   1.479       .  S
C220        H222   1.082       .  S
C223        C224   1.404       .  A
C223        C228   1.409       .  A
C223        C794   1.486       .  S
C224        C225   1.402       .  A
C224        H229   1.084       .  S
C225        C226   1.404       .  A
C225        C850   1.485       .  S
C226        C227   1.408       .  A
C226        H230   1.083       .  S
C227        C228   1.407       .  A
C228        H231   1.084       .  S
N232        N233   1.321       .  A
N232        C236   1.346       .  A
N232       Cu240   2.072       .  S
N233        C234   1.344       .  A
N233       Cu239   2.074       .  S
C234        C235   1.384   1_655  A
C234        H237   1.082       .  S
C235        C236   1.384   1_455  A
C236        H238   1.082       .  S
Cu239       N242   2.074       .  S
Cu240       N250   2.073       .  S
Cu241       N243   2.095       .  S
Cu241       N249   2.095       .  S
N242        N243   1.323       .  A
N242        C246   1.344       .  A
N243        C244   1.350       .  A
C244        C245   1.387       .  A
C244        H247   1.081       .  S
C245        C246   1.381       .  A
C245        C258   1.477       .  S
C246        H248   1.082       .  S
N249        N250   1.324       .  A
N249        C253   1.348       .  A
N250        C251   1.346       .  A
C251        C252   1.382       .  A
C251        H254   1.082       .  S
C252        C253   1.387       .  A
C252        C285   1.477       .  S
C253        H255   1.082       .  S
C256        C257   1.406       .  A
C256        C261   1.408       .  A
C256        C757   1.489       .  S
C257        C258   1.403       .  A
C257        H262   1.084       .  S
C258        C259   1.404       .  A
C259        C260   1.408       .  A
C259        H263   1.084       .  S
C260        C261   1.407       .  A
C260        C813   1.494       .  S
C261        H264   1.081       .  S
N265        N266   1.321       .  A
N265        C269   1.347       .  A
N265       Cu273   2.076       .  S
N266        C267   1.343       .  A
N266       Cu272   2.064       .  S
C267        C268   1.382       .  A
C267        H270   1.082       .  S
C268        C269   1.386       .  A
C268        C301   1.472       .  S
C269        H271   1.082       .  S
Cu272       N275   2.064       .  S
Cu273       N283   2.077       .  S
Cu274       N276   2.095       .  S
Cu274       N282   2.097       .  S
N275        N276   1.322       .  A
N275        C279   1.342       .  A
N276        C277   1.351       .  A
C277        C278   1.389       .  A
C277        H280   1.082       .  S
C278        C279   1.380       .  A
C278        C293   1.477       .  S
C279        H281   1.082       .  S
N282        N283   1.325       .  A
N282        C286   1.348       .  A
N283        C284   1.345       .  A
C284        C285   1.381       .  A
C284        H287   1.082       .  S
C285        C286   1.387       .  A
C286        H288   1.082       .  S
C289        C290   1.403       .  A
C289        C294   1.403       .  A
C289        C729   1.486       .  S
C290        C291   1.407       .  A
C290        H295   1.083       .  S
C291        C292   1.409       .  A
C291        C710   1.489       .  S
C292        C293   1.404       .  A
C292        H296   1.083       .  S
C293        C294   1.403       .  A
C294        H297   1.084       .  S
N298        N299   1.321       .  A
N298        C302   1.347       .  A
N298       Cu306   2.074       .  S
N299        C300   1.343       .  A
N299       Cu305   2.070       .  S
C300        C301   1.383       .  A
C300        H303   1.082       .  S
C301        C302   1.385       .  A
C302        H304   1.082       .  S
Cu305       N308   2.071       .  S
Cu306       N316   2.075       .  S
Cu307       N309   2.101       .  S
Cu307       N315   2.103       .  S
N308        N309   1.323       .  A
N308        C312   1.344       .  A
N309        C310   1.352       .  A
C310        C311   1.389       .  A
C310        H313   1.082       .  S
C311        C312   1.381       .  A
C311        C324   1.480       .  S
C312        H314   1.082       .  S
N315        N316   1.324       .  A
N315        C319   1.349       .  A
N316        C317   1.346       .  A
C317        C318   1.382       .  A
C317        H320   1.083       .  S
C318        C319   1.389       .  A
C319        H321   1.082       .  S
C322        C323   1.411       .  A
C322        C327   1.411       .  A
C322        C654   1.495       .  S
C323        C324   1.406       .  A
C323        H328   1.083       .  S
C324        C325   1.403       .  A
C325        C326   1.404       .  A
C325        H329   1.084       .  S
C326        C327   1.406       .  A
C326        C673   1.490       .  S
C327        H330   1.083       .  S
N331        N332   1.321       .  A
N331        C335   1.348       .  A
N331       Cu339   2.079       .  S
N332        C333   1.343       .  A
N332       Cu338   2.068       .  S
C333        C334   1.382       .  A
C333        H336   1.082       .  S
C334        C335   1.386       .  A
C334        C367   1.474       .  S
C335        H337   1.082       .  S
Cu338       N341   2.068       .  S
Cu339       N349   2.079       .  S
Cu340       N342   2.099       .  S
Cu340       N348   2.100       .  S
N341        N342   1.323       .  A
N341        C345   1.344       .  A
N342        C343   1.351       .  A
C343        C344   1.389       .  A
C343        H346   1.082       .  S
C344        C345   1.381       .  A
C344        C359   1.480       .  S
C345        H347   1.082       .  S
N348        N349   1.325       .  A
N348        C352   1.349       .  A
N349        C350   1.346       .  A
C350        C351   1.382       .  A
C350        H353   1.082       .  S
C351        C352   1.387       .  A
C352        H354   1.082       .  S
C355        C356   1.409       .  A
C355        C360   1.409       .  A
C355        C682   1.493       .  S
C356        C357   1.404       .  A
C356        H361   1.083       .  S
C357        C358   1.405       .  A
C357        C617   1.488       .  S
C358        C359   1.406       .  A
C358        H362   1.084       .  S
C359        C360   1.405       .  A
C360        H363   1.083       .  S
N364        N365   1.322       .  A
N364        C368   1.347       .  A
N364       Cu372   2.076       .  S
N365        C366   1.344       .  A
N365       Cu371   2.077       .  S
C366        C367   1.384   1_655  A
C366        H369   1.082   1_655  S
C367        C368   1.384   1_455  A
C368        H370   1.082   1_655  S
Cu371       N374   2.077       .  S
Cu372       N382   2.076       .  S
Cu373       N375   2.100       .  S
Cu373       N381   2.101       .  S
N374        N375   1.323       .  A
N374        C378   1.347       .  A
N375        C376   1.350       .  A
C376        C377   1.387       .  A
C376        H379   1.081       .  S
C377        C378   1.382       .  A
C377        C390   1.479       .  S
C378        H380   1.082       .  S
N381        N382   1.324       .  A
N381        C385   1.349       .  A
N382        C383   1.347       .  A
C383        C384   1.383       .  A
C383        H386   1.082       .  S
C384        C385   1.388       .  A
C385        H387   1.082       .  S
C388        C389   1.404       .  A
C388        C393   1.402       .  A
C388        C738   1.482       .  S
C389        C390   1.403       .  A
C389        H394   1.083       .  S
C390        C391   1.407       .  A
C391        C392   1.412       .  A
C391        H395   1.083       .  S
C392        C393   1.405       .  A
C392        C589   1.494       .  S
C393        H396   1.084       .  S
N397        N398   1.321       .  A
N397        C401   1.346       .  A
N397       Cu405   2.071       .  S
N398        C399   1.343       .  A
N398       Cu404   2.069       .  S
C399        C400   1.383       .  A
C399        H402   1.082       .  S
C400        C401   1.384       .  A
C400        C433   1.471   1_455  S
C401        H403   1.082       .  S
Cu404       N407   2.070       .  S
Cu405       N415   2.073       .  S
Cu406       N408   2.094       .  S
Cu406       N414   2.095       .  S
N407        N408   1.322       .  A
N407        C411   1.343       .  A
N408        C409   1.351       .  A
C409        C410   1.389       .  A
C409        H412   1.081       .  S
C410        C411   1.382       .  A
C410        C425   1.481       .  S
C411        H413   1.082       .  S
N414        N415   1.324       .  A
N414        C418   1.347       .  A
N415        C416   1.345       .  A
C416        C417   1.382       .  A
C416        H419   1.083       .  S
C417        C418   1.386       .  A
C418        H420   1.082       .  S
C421        C422   1.404       .  A
C421        C426   1.404       .  A
C421        C561   1.494       .  S
C422        C423   1.410       .  A
C422        H427   1.083       .  S
C423        C424   1.412       .  A
C423        C626   1.500       .  S
C424        C425   1.407       .  A
C424        H428   1.082       .  S
C425        C426   1.404       .  A
C426        H429   1.083       .  S
N430        N431   1.320       .  A
N430        C434   1.346       .  A
N430       Cu438   2.069       .  S
N431        C432   1.343       .  A
N431       Cu437   2.066       .  S
C432        C433   1.383       .  A
C432        H435   1.082       .  S
C433        C434   1.384       .  A
C434        H436   1.082       .  S
Cu437       N440   2.066       .  S
Cu438       N448   2.070       .  S
Cu439       N441   2.091       .  S
Cu439       N447   2.092       .  S
N440        N441   1.323       .  A
N440        C444   1.342       .  A
N441        C442   1.350       .  A
C442        C443   1.387       .  A
C442        H445   1.082       .  S
C443        C444   1.380       .  A
C443        C458   1.475       .  S
C444        H446   1.082       .  S
N447        N448   1.324       .  A
N447        C451   1.348       .  A
N448        C449   1.343       .  A
C449        C450   1.380       .  A
C449        H452   1.082       .  S
C450        C451   1.386       .  A
C451        H453   1.083       .  S
C454        C455   1.405       .  A
C454        C459   1.402       .  A
C454        C542   1.487       .  S
C455        C456   1.410       .  A
C455        H460   1.083       .  S
C456        C457   1.408       .  A
C456        C598   1.493       .  S
C457        C458   1.404       .  A
C457        H461   1.084       .  S
C458        C459   1.403       .  A
C459        H462   1.084       .  S
N463        N464   1.322       .  A
N463        C467   1.346       .  A
N463       Cu471   2.075       .  S
N464        C465   1.344       .  A
N464       Cu470   2.075       .  S
C465        C466   1.383       .  A
C465        H468   1.081       .  S
C466        C467   1.384       .  A
C466        C499   1.472       .  S
C467        H469   1.082       .  S
Cu470       N473   2.075       .  S
Cu471       N481   2.075       .  S
Cu472       N474   2.082       .  S
Cu472       N480   2.083       .  S
N473        N474   1.322       .  A
N473        C477   1.345       .  A
N474        C475   1.348       .  A
C475        C476   1.384       .  A
C475        H478   1.081       .  S
C476        C477   1.382       .  A
C476        C489   1.474       .  S
C477        H479   1.082       .  S
N480        N481   1.323       .  A
N480        C484   1.345       .  A
N481        C482   1.347       .  A
C482        C483   1.383       .  A
C482        H485   1.082       .  S
C483        C484   1.384       .  A
C484        H486   1.082       .  S
C487        C488   1.406       .  A
C487        C492   1.405       .  A
C487        C533   1.486       .  S
C488        C489   1.401       .  A
C488        H493   1.084       .  S
C489        C490   1.402       .  A
C490        C491   1.408       .  A
C490        H494   1.083       .  S
C491        C492   1.408       .  A
C491        C701   1.493       .  S
C492        H495   1.083       .  S
N496        N497   1.321       .  A
N496        C500   1.346       .  A
N496       Cu504   2.075       .  S
N497        C498   1.344       .  A
N497       Cu503   2.070       .  S
C498        C499   1.383       .  A
C498        H501   1.082       .  S
C499        C500   1.385       .  A
C500        H502   1.081       .  S
Cu503       N506   2.069       .  S
Cu504       N514   2.076       .  S
Cu505       N507   2.091       .  S
Cu505       N513   2.093       .  S
N506        N507   1.322       .  A
N506        C510   1.343       .  A
N507        C508   1.350       .  A
C508        C509   1.387       .  A
C508        H511   1.082       .  S
C509        C510   1.381       .  A
C509        C522   1.477       .  S
C510        H512   1.082       .  S
N513        N514   1.324       .  A
N513        C517   1.346       .  A
N514        C515   1.347       .  A
C515        C516   1.383       .  A
C515        H518   1.082       .  S
C516        C517   1.386       .  A
C517        H519   1.083       .  S
C520        C521   1.410       .  A
C520        C525   1.412       .  A
C520        C570   1.495       .  S
C521        C522   1.404       .  A
C521        H526   1.084       .  S
C522        C523   1.403       .  A
C523        C524   1.402       .  A
C523        H527   1.084       .  S
C524        C525   1.405       .  A
C524        C645   1.484       .  S
C525        H528   1.082       .  S
C529        C530   1.403       .  A
C529        C534   1.403       .  A
C529        H539   1.083       .  S
C530        C531   1.409       .  A
C530        C535   1.482       .  S
C531        C532   1.402       .  A
C531        N536   1.433       .  S
C532        C533   1.406       .  A
C532        H537   1.082       .  S
C533        C534   1.413       .  A
C534        N538   1.431       .  S
C535        C540   1.410       .  A
C535        C544   1.400       .  A
N536        O551   1.262       .  A
N536        O552   1.262       .  A
N538        O549   1.262       .  A
N538        O550   1.262       .  A
C540        C541   1.403       .  A
C540        N545   1.432       .  S
C541        C542   1.405       .  A
C541        H546   1.082       .  S
C542        C543   1.415       .  A
C543        C544   1.402       .  A
C543        N547   1.433       .  S
C544        H548   1.083       .  S
N545        O555   1.262       .  A
N545        O556   1.262       .  A
N547        O553   1.262       .  A
N547        O554   1.262       .  A
C557        C558   1.400       .  A
C557        C562   1.402       .  A
C557        H567   1.082       .  S
C558        C559   1.407       .  A
C558        C563   1.481       .  S
C559        C560   1.403       .  A
C559        N564   1.429       .  S
C560        C561   1.408       .  A
C560        H565   1.082       .  S
C561        C562   1.416       .  A
C562        N566   1.431       .  S
C563        C568   1.408       .  A
C563        C572   1.400       .  A
N564        O579   1.262       .  A
N564        O580   1.262       .  A
N566        O577   1.262       .  A
N566        O578   1.262       .  A
C568        C569   1.403       .  A
C568        N573   1.430       .  S
C569        C570   1.409       .  A
C569        H574   1.082       .  S
C570        C571   1.416       .  A
C571        C572   1.404       .  A
C571        N575   1.432       .  S
C572        H576   1.083       .  S
N573        O583   1.262       .  A
N573        O584   1.262       .  A
N575        O581   1.262       .  A
N575        O582   1.262       .  A
C585        C586   1.402       .  A
C585        C590   1.402       .  A
C585        H595   1.083       .  S
C586        C587   1.411       .  A
C586        C591   1.485       .  S
C587        C588   1.404       .  A
C587        N592   1.433       .  S
C588        C589   1.409       .  A
C588        H593   1.082       .  S
C589        C590   1.414       .  A
C590        N594   1.430       .  S
C591        C596   1.413       .  A
C591        C600   1.399       .  A
N592        O607   1.262       .  A
N592        O608   1.262       .  A
N594        O605   1.262       .  A
N594        O606   1.262       .  A
C596        C597   1.407       .  A
C596        N601   1.433       .  S
C597        C598   1.408       .  A
C597        H602   1.082       .  S
C598        C599   1.416       .  A
C599        C600   1.399       .  A
C599        N603   1.432       .  S
C600        H604   1.083       .  S
N601        O611   1.262       .  A
N601        O612   1.262       .  A
N603        O609   1.262       .  A
N603        O610   1.262       .  A
C613        C614   1.405       .  A
C613        C618   1.404       .  A
C613        H623   1.081       .  S
C614        C615   1.413       .  A
C614        C619   1.493       .  S
C615        C616   1.405       .  A
C615        N620   1.430       .  S
C616        C617   1.405       .  A
C616        H621   1.081       .  S
C617        C618   1.410       .  A
C618        N622   1.429       .  S
C619        C624   1.410       .  A
C619        C628   1.405       .  A
N620        O635   1.262       .  A
N620        O636   1.262       .  A
N622        O633   1.262       .  A
N622        O634   1.262       .  A
C624        C625   1.401       .  A
C624        N629   1.430       .  S
C625        C626   1.408       .  A
C625        H630   1.081       .  S
C626        C627   1.418       .  A
C627        C628   1.407       .  A
C627        N631   1.431       .  S
C628        H632   1.081       .  S
N629        O639   1.262       .  A
N629        O640   1.262       .  A
N631        O637   1.262       .  A
N631        O638   1.262       .  A
C641        C642   1.403   1_565  A
C641        C646   1.404       .  A
C641        H651   1.082       .  S
C642        C643   1.409       .  A
C642        C647   1.485       .  S
C643        C644   1.404   1_545  A
C643        N648   1.429       .  S
C644        C645   1.404       .  A
C644        H649   1.082       .  S
C645        C646   1.409       .  A
C646        N650   1.428       .  S
C647        C652   1.407       .  A
C647        C656   1.403       .  A
N648        O663   1.262       .  A
N648        O664   1.262       .  A
N650        O661   1.262       .  A
N650        O662   1.262       .  A
C652        C653   1.402       .  A
C652        N657   1.429       .  S
C653        C654   1.407       .  A
C653        H658   1.082       .  S
C654        C655   1.416       .  A
C655        C656   1.407       .  A
C655        N659   1.430       .  S
C656        H660   1.082       .  S
N657        O667   1.262       .  A
N657        O668   1.262       .  A
N659        O665   1.262       .  A
N659        O666   1.262       .  A
C669        C670   1.404       .  A
C669        C674   1.404       .  A
C669        H679   1.082       .  S
C670        C671   1.408       .  A
C670        C675   1.486       .  S
C671        C672   1.403       .  A
C671        N676   1.429       .  S
C672        C673   1.407       .  A
C672        H677   1.082       .  S
C673        C674   1.412       .  A
C674        N678   1.429       .  S
C675        C680   1.408       .  A
C675        C684   1.404       .  A
N676        O691   1.262       .  A
N676        O692   1.262       .  A
N678        O689   1.262       .  A
N678        O690   1.262       .  A
C680        C681   1.400       .  A
C680        N685   1.430       .  S
C681        C682   1.407       .  A
C681        H686   1.083       .  S
C682        C683   1.415       .  A
C683        C684   1.407       .  A
C683        N687   1.431       .  S
C684        H688   1.082       .  S
N685        O695   1.262       .  A
N685        O696   1.262       .  A
N687        O693   1.262       .  A
N687        O694   1.262       .  A
C697        C698   1.403       .  A
C697        C702   1.403   1_545  A
C697        H707   1.082       .  S
C698        C699   1.407   1_545  A
C698        C703   1.484       .  S
C699        C700   1.400       .  A
C699        N704   1.430       .  S
C700        C701   1.408       .  A
C700        H705   1.081       .  S
C701        C702   1.417       .  A
C702        N706   1.434       .  S
C703        C708   1.408       .  A
C703        C712   1.404       .  A
N704        O719   1.262       .  A
N704        O720   1.262   1_565  A
N706        O717   1.262   1_565  A
N706        O718   1.262       .  A
C708        C709   1.399       .  A
C708        N713   1.431       .  S
C709        C710   1.406       .  A
C709        H714   1.082       .  S
C710        C711   1.414       .  A
C711        C712   1.405       .  A
C711        N715   1.432       .  S
C712        H716   1.082       .  S
N713        O723   1.262       .  A
N713        O724   1.262       .  A
N715        O721   1.262       .  A
N715        O722   1.262       .  A
C725        C726   1.402       .  A
C725        C730   1.403       .  A
C725        H735   1.082       .  S
C726        C727   1.408       .  A
C726        C731   1.482       .  S
C727        C728   1.400       .  A
C727        N732   1.429       .  S
C728        C729   1.404       .  A
C728        H733   1.082       .  S
C729        C730   1.414       .  A
C730        N734   1.430       .  S
C731        C736   1.409       .  A
C731        C740   1.402       .  A
N732        O747   1.262       .  A
N732        O748   1.262       .  A
N734        O745   1.262       .  A
N734        O746   1.262       .  A
C736        C737   1.403       .  A
C736        N741   1.430       .  S
C737        C738   1.404       .  A
C737        H742   1.082       .  S
C738        C739   1.410       .  A
C739        C740   1.400       .  A
C739        N743   1.429       .  S
C740        H744   1.082       .  S
N741        O751   1.262       .  A
N741        O752   1.262       .  A
N743        O749   1.262       .  A
N743        O750   1.262       .  A
C753        C754   1.402       .  A
C753        C758   1.403       .  A
C753        H763   1.082       .  S
C754        C755   1.408       .  A
C754        C759   1.484       .  S
C755        C756   1.404       .  A
C755        N760   1.428       .  S
C756        C757   1.406       .  A
C756        H761   1.081       .  S
C757        C758   1.414       .  A
C758        N762   1.430       .  S
C759        C764   1.409       .  A
C759        C768   1.402       .  A
N760        O775   1.262       .  A
N760        O776   1.262       .  A
N762        O773   1.262       .  A
N762        O774   1.262       .  A
C764        C765   1.403       .  A
C764        N769   1.429       .  S
C765        C766   1.405   1_554  A
C765        H770   1.082       .  S
C766        C767   1.413       .  A
C767        C768   1.403   1_556  A
C767        N771   1.429       .  S
C768        H772   1.082       .  S
N769        O779   1.262       .  A
N769        O780   1.262       .  A
N771        O777   1.262       .  A
N771        O778   1.262       .  A
C781        C782   1.400       .  A
C781        C786   1.403       .  A
C781        H791   1.083       .  S
C782        C783   1.409       .  A
C782        C787   1.486       .  S
C783        C784   1.405   1_554  A
C783        N788   1.432   1_554  S
C784        C785   1.409       .  A
C784        H789   1.082       .  S
C785        C786   1.418   1_556  A
C786        N790   1.433       .  S
C787        C792   1.413       .  A
C787        C796   1.402       .  A
N788        O803   1.262       .  A
N788        O804   1.262       .  A
N790        O801   1.263       .  A
N790        O802   1.262   1_554  A
C792        C793   1.406       .  A
C792        N797   1.432       .  S
C793        C794   1.404       .  A
C793        H798   1.082       .  S
C794        C795   1.412       .  A
C795        C796   1.401       .  A
C795        N799   1.430       .  S
C796        H800   1.083       .  S
N797        O807   1.262       .  A
N797        O808   1.262       .  A
N799        O805   1.262       .  A
N799        O806   1.262       .  A
C809        C810   1.402   1_545  A
C809        C814   1.405       .  A
C809        H819   1.082       .  S
C810        C811   1.408       .  A
C810        C815   1.485       .  S
C811        C812   1.402   1_565  A
C811        N816   1.430       .  S
C812        C813   1.407       .  A
C812        H817   1.081       .  S
C813        C814   1.416       .  A
C814        N818   1.430       .  S
C815        C820   1.407       .  A
C815        C824   1.403   1_554  A
N816        O831   1.262       .  A
N816        O832   1.262       .  A
N818        O829   1.262       .  A
N818        O830   1.262       .  A
C820        C821   1.402       .  A
C820        N825   1.429       .  S
C821        C822   1.407   1_554  A
C821        H826   1.082       .  S
C822        C823   1.414       .  A
C823        C824   1.404       .  A
C823        N827   1.430       .  S
C824        H828   1.082       .  S
N825        O835   1.262       .  A
N825        O836   1.262       .  A
N827        O833   1.262       .  A
N827        O834   1.262       .  A
C837        C838   1.404       .  A
C837        C842   1.402       .  A
C837        H847   1.082       .  S
C838        C839   1.412       .  A
C838        C843   1.488       .  S
C839        C840   1.404   1_554  A
C839        N844   1.429   1_554  S
C840        C841   1.402       .  A
C840        H845   1.082       .  S
C841        C842   1.409   1_556  A
C842        N846   1.429       .  S
C843        C848   1.411   1_565  A
C843        C852   1.405       .  A
N844        O859   1.262   1_556  A
N844        O860   1.262       .  A
N846        O857   1.262   1_554  A
N846        O858   1.262       .  A
C848        C849   1.402       .  A
C848        N853   1.430       .  S
C849        C850   1.404       .  A
C849        H854   1.082       .  S
C850        C851   1.410       .  A
C851        C852   1.404   1_545  A
C851        N855   1.429       .  S
C852        H856   1.082       .  S
N853        O863   1.262       .  A
N853        O864   1.262   1_554  A
N855        O861   1.262       .  A
N855        O862   1.262       .  A
C865        C866   1.404       .  A
C865        C870   1.402       .  A
C865        H875   1.082       .  S
C866        C867   1.410       .  A
C866        C871   1.486       .  S
C867        C868   1.403       .  A
C867        N872   1.429       .  S
C868        C869   1.404       .  A
C868        H873   1.082       .  S
C869        C870   1.409       .  A
C870        N874   1.429       .  S
C871        C876   1.410       .  A
C871        C880   1.406       .  A
N872        O887   1.262       .  A
N872        O888   1.262       .  A
N874        O885   1.262       .  A
N874        O886   1.262       .  A
C876        C877   1.400       .  A
C876        N881   1.429       .  S
C877        C878   1.402   1_554  A
C877        H882   1.082       .  S
C878        C879   1.408       .  A
C879        C880   1.405   1_556  A
C879        N883   1.428       .  S
C880        H884   1.081       .  S
N881        O891   1.262       .  A
N881        O892   1.262       .  A
N883        O889   1.262       .  A
N883        O890   1.262       .  A
C893        C894   1.406       .  A
C893        C898   1.403       .  A
C893        H903   1.080       .  S
C894        C895   1.412       .  A
C894        C899   1.490       .  S
C895        C896   1.402       .  A
C895        N900   1.430       .  S
C896        C897   1.404       .  A
C896        H901   1.081       .  S
C897        C898   1.410       .  A
C898        N902   1.429       .  S
C899        C904   1.413       .  A
C899        C908   1.406   1_554  A
N900        O915   1.262       .  A
N900        O916   1.262       .  A
N902        O913   1.262       .  A
N902        O914   1.262       .  A
C904        C905   1.403       .  A
C904        N909   1.430       .  S
C905        C906   1.403   1_554  A
C905        H910   1.081       .  S
C906        C907   1.408       .  A
C907        C908   1.402       .  A
C907        N911   1.429       .  S
C908        H912   1.080       .  S
N909        O919   1.262       .  A
N909        O920   1.262       .  A
N911        O917   1.262       .  A
N911        O918   1.262       .  A
C921        C922   1.404       .  A
C921        C926   1.403       .  A
C921        H931   1.080       .  S
C922        C923   1.410       .  A
C922        C927   1.488       .  S
C923        C924   1.402       .  A
C923        N928   1.430       .  S
C924        C925   1.405       .  A
C924        H929   1.081       .  S
C925        C926   1.414       .  A
C926        N930   1.431       .  S
C927        C932   1.409   1_554  A
C927        C936   1.403       .  A
N928        O943   1.262       .  A
N928        O944   1.262   1_554  A
N930        O941   1.262       .  A
N930        O942   1.262       .  A
C932        C933   1.401       .  A
C932        N937   1.430       .  S
C933        C934   1.408       .  A
C933        H938   1.080       .  S
C934        C935   1.417   1_556  A
C935        C936   1.405       .  A
C935        N939   1.432       .  S
C936        H940   1.080       .  S
N937        O947   1.262       .  A
N937        O948   1.262       .  A
N939        O945   1.262   1_554  A
N939        O946   1.262       .  A
C949        C950   1.401       .  A
C949        C954   1.405       .  A
C949        H959   1.082       .  S
C950        C951   1.405       .  A
C950        C955   1.478       .  S
C951        C952   1.398       .  A
C951        N956   1.429   1_554  S
C952        C953   1.408       .  A
C952        H957   1.082       .  S
C953        C954   1.417       .  A
C954        N958   1.432       .  S
C955        C960   1.407   1_554  A
C955        C964   1.401       .  A
N956        O971   1.262       .  A
N956        O972   1.262       .  A
N958        O969   1.262       .  A
N958        O970   1.262       .  A
C960        C961   1.402       .  A
C960        N965   1.429       .  S
C961        C962   1.406       .  A
C961        H966   1.082       .  S
C962        C963   1.410   1_556  A
C963        C964   1.400       .  A
C963        N967   1.429       .  S
C964        H968   1.082       .  S
N965        O975   1.262   1_556  A
N965        O976   1.262       .  A
N967        O973   1.262       .  A
N967        O974   1.262   1_554  A
