geometry optimzed in LAMMPS
_audit_creation_date              2020-11-30 
_audit_creation_method            'lammps2cif' 
_symmetry_space_group_name_H-M    'P1' 
_symmetry_Int_Tables_number       1 
_symmetry_cell_setting            triclinic 
loop_ 
_symmetry_equiv_pos_as_xyz 
  x,y,z 
_cell_length_a                    52.49668577 
_cell_length_b                    52.77436513776663 
_cell_length_c                    35.90830858536512 
_cell_angle_alpha                 86.06860504063043 
_cell_angle_beta                  93.14353061649621 
_cell_angle_gamma                 120.08245580737757 
loop_ 
_atom_site_label 
_atom_site_type_symbol 
_atom_site_fract_x 
_atom_site_fract_y 
_atom_site_fract_z 
_atom_site_charge 
O1          O  0.34957851  0.48144547  0.29189932    -0.56900
C2          C  0.37457520  0.03055726  0.21823892     0.75800
O3          O  0.35999213  0.99265287  0.09559724    -0.58000
C4          C  0.32877608  0.45762247  0.27986927     0.75700
C5          C  0.28759875  0.98991777  0.18876627     0.78100
Cd6        Cd  0.34044598  0.98917538  0.16464040     1.37500
O7          O  0.36851212  0.00406383  0.22057022    -0.56900
O8          O  0.29949104  0.48432800  0.21799030    -0.55700
C9          C  0.40448203  0.51142717  0.18829151     0.78100
O10         O  0.32144785  0.53118462  0.21399409    -0.58100
O11         O  0.36714241  0.03938806  0.18797705    -0.56500
O12         O  0.32207520  0.45767479  0.24541268    -0.56500
O13         O  0.38707267  0.99463749  0.14292367    -0.55700
O14         O  0.02669837  0.13816314  0.31150487    -0.56900
C15         C  0.44618494  0.10090719  0.33406520     0.75800
O16         O  0.48946406  0.10077170  0.42319873    -0.58000
C17         C  0.05365606  0.15747576  0.31384605     0.75700
C18         C  0.50142295  0.19368172  0.36524045     0.78100
Cd19       Cd  0.50032804  0.13798183  0.36956456     1.37500
O20         O  0.47068330  0.10494180  0.32425933    -0.56900
O21         O  0.47873313  0.17060479  0.37679943    -0.55700
C22         C  0.02037065  0.09886207  0.42099216     0.78100
O23         O  0.52466913  0.19202397  0.36512902    -0.58100
O24         O  0.44573306  0.11369404  0.36246943    -0.56500
O25         O  0.06335599  0.16914981  0.34503049    -0.56500
O26         O  0.53272470  0.12021722  0.40186163    -0.55700
O27         O  0.45823619  0.32990498  0.29432510    -0.56900
C28         C  0.03926836  0.37248107  0.34384755     0.75800
O29         O  0.50098252  0.29779597  0.24984194    -0.58000
C30         C  0.43918108  0.30816887  0.27603453     0.75700
C31         C  0.50003084  0.39435388  0.21089883     0.78100
Cd32       Cd  0.49778807  0.34306872  0.25461350     1.37500
O33         O  0.01223078  0.36505741  0.34368236    -0.56900
O34         O  0.49628134  0.39013771  0.24600476    -0.55700
C35         C  0.49890546  0.29228288  0.28535621     0.78100
O36         O  0.50260950  0.37475527  0.19508676    -0.58100
O37         O  0.04934345  0.37059220  0.31361957    -0.56500
O38         O  0.44655673  0.30473418  0.24428372    -0.56500
O39         O  0.49591693  0.30974862  0.30502310    -0.55700
O40         O  0.13097378  0.15785284  0.18834692    -0.56900
C41         C  0.16293092  0.12729105  0.16739390     0.75800
O42         O  0.11665493  0.11430222  0.08996550    -0.58000
C43         C  0.11552993  0.17003860  0.18332685     0.75700
C44         C  0.19596373  0.21843226  0.11920574     0.78100
Cd45       Cd  0.14274588  0.16055954  0.12475219     1.37500
O46         O  0.14674783  0.13565755  0.18084187    -0.56900
O47         O  0.19678176  0.19602222  0.11041762    -0.55700
C48         C  0.09326078  0.11480208  0.08135921     0.78100
O49         O  0.17037315  0.21488454  0.12100254    -0.58100
O50         O  0.17002607  0.13438164  0.13348128    -0.56500
O51         O  0.11208164  0.17787489  0.15014121    -0.56500
O52         O  0.09440662  0.13889045  0.08646021    -0.55700
O53         O  0.14482812  0.01733364  0.26287643    -0.56900
C54         C  0.12974075  0.45119477  0.38920307     0.75800
O55         O  0.17590870  0.96531530  0.29495266    -0.58000
C56         C  0.16672591  0.04242468  0.26802704     0.75700
C57         C  0.09555716  0.49866793  0.32941340     0.78100
Cd58       Cd  0.15115820  0.99226454  0.31692508     1.37500
O59         O  0.13041083  0.44873510  0.35440573    -0.56900
O60         O  0.12028072  0.00802361  0.34932043    -0.55700
C61         C  0.20174064  0.98713958  0.29282117     0.78100
O62         O  0.12774611  0.97831251  0.38465344    -0.58100
O63         O  0.14423846  0.47666007  0.40145318    -0.56500
O64         O  0.18173508  0.04550653  0.29816922    -0.56500
O65         O  0.20566355  0.00924955  0.30995320    -0.55700
C66         C  0.50934905  0.50498349  0.13493469    -0.01500
C67         C  0.97857696  0.49325520  0.34771698    -0.01500
O68         O  0.30424673  0.35963596  0.27457259    -0.56900
C69         C  0.34006322  0.28787189  0.29841428     0.75800
O70         O  0.37341535  0.38598371  0.25890062    -0.58000
C71         C  0.29777855  0.35387489  0.30872932     0.75700
C72         C  0.28989898  0.30582435  0.20806624     0.78100
Cd73       Cd  0.32948470  0.33356766  0.27230054     1.37500
O74         O  0.34730512  0.30086837  0.26647451    -0.56900
O75         O  0.31764582  0.32093034  0.20370735    -0.55700
C76         C  0.38721702  0.38649451  0.28941322     0.78100
O77         O  0.28125805  0.30449076  0.24072602    -0.58100
O78         O  0.32488636  0.29411643  0.31825886    -0.56500
O79         O  0.30353234  0.33559124  0.32637472    -0.56500
O80         O  0.37577490  0.36269777  0.30880032    -0.55700
C81         C  0.43359647  0.40880658  0.32907357    -0.11300
C82         C  0.41473490  0.41296841  0.30338701     0.05700
C83         C  0.42245416  0.44211700  0.29299479    -0.06600
C84         C  0.44715545  0.46579607  0.30970891    -0.07400
C85         C  0.46510173  0.46219872  0.33836730    -0.01900
C86         C  0.45909655  0.43246802  0.34466035     0.04900
N87         N  0.48021252  0.42551064  0.36179605     0.67400
H88         H  0.42951405  0.38672979  0.33557423     0.16300
H89         H  0.45241821  0.48719298  0.29828208     0.16000
N90         N  0.40562908  0.44845114  0.26526633     0.75100
O91         O  0.47381999  0.41025480  0.39205553    -0.38300
O92         O  0.49772720  0.42389985  0.34059600    -0.38300
O93         O  0.38951654  0.45810369  0.27511697    -0.39000
O94         O  0.41305238  0.45223847  0.23164565    -0.39000
C95         C  0.48777080  0.47832551  0.07270019    -0.11300
C96         C  0.51034075  0.50341720  0.09052058     0.05700
C97         C  0.00725854  0.02892150  0.95903204    -0.06600
C98         C  0.04084459  0.00985384  0.53556955    -0.07400
C99         C  0.97081981  0.49491939  0.38996242    -0.01900
C100        C  0.46745442  0.47190442  0.42624790     0.04900
N101        N  0.44107536  0.44743294  0.41263596     0.67400
H102        H  0.46956376  0.46204676  0.08925820     0.16300
H103        H  0.05954313  0.02599086  0.51962576     0.16000
N104        N  0.03446181  0.05304763  0.97166959     0.75100
O105        O  0.43421044  0.42181187  0.42455758    -0.38300
O106        O  0.42180920  0.45160674  0.39547446    -0.38300
O107        O  0.09404416  0.52712303  0.09043189    -0.39000
O108        O  0.04139039  0.07856875  0.95906257    -0.39000
C109        C  0.06361433  0.51393752  0.35933704    -0.11300
C110        C  0.06614297  0.49719482  0.33269721     0.05700
C111        C  0.06705498  0.99402019  0.39015604    -0.06600
C112        C  0.04500617  0.99154646  0.41299648    -0.07400
C113        C  0.01021205  0.49503064  0.34528797    -0.01900
C114        C  0.03729948  0.51411446  0.36510947     0.04900
N115        N  0.04083106  0.53652871  0.38837577     0.67400
H116        H  0.08293324  0.52820261  0.37575681     0.16300
H117        H  0.02707682  0.99339845  0.39920953     0.16000
N118        N  0.06430904  0.99958022  0.35108501     0.75100
O119        O  0.04981015  0.56190406  0.37362812    -0.38300
O120        O  0.04655638  0.53437548  0.42263149    -0.38300
O121        O  0.04530914  0.97896499  0.33191248    -0.39000
O122        O  0.07335731  0.02568866  0.33915166    -0.39000
C123        C  0.21758773  0.26467443  0.15306462    -0.11300
C124        C  0.22255902  0.24589583  0.13244975     0.05700
C125        C  0.25185420  0.25120369  0.13171692    -0.06600
C126        C  0.27428295  0.27268893  0.15410422    -0.07400
C127        C  0.26823338  0.28904626  0.17780067    -0.01900
C128        C  0.23976294  0.28573503  0.17563479     0.04900
N129        N  0.23262771  0.30321902  0.19673603     0.67400
H130        H  0.19568269  0.26180617  0.15380591     0.16300
H131        H  0.29608965  0.27519653  0.15471775     0.16000
N132        N  0.25931463  0.23471369  0.10921133     0.75100
O133        O  0.23372638  0.32587686  0.18105243    -0.38300
O134        O  0.21749289  0.29185720  0.22559657    -0.38300
O135        O  0.27200423  0.24635710  0.07878311    -0.39000
O136        O  0.26135677  0.21345473  0.12421489    -0.39000
C137        C  0.03309613  0.03482443  0.06967278    -0.11300
C138        C  0.01262934  0.03654519  0.04426298     0.05700
C139        C  0.01685981  0.06556138  0.03711623    -0.06600
C140        C  0.04339135  0.09056911  0.04820117    -0.07400
C141        C  0.06575669  0.08805712  0.06836384    -0.01900
C142        C  0.05963718  0.05951548  0.08034442     0.04900
N143        N  0.07875412  0.05504852  0.10642981     0.67400
H144        H  0.02773928  0.01414694  0.08377182     0.16300
H145        H  0.04617517  0.11213951  0.04155136     0.16000
N146        N  0.99385869  0.07032023  0.02140948     0.75100
O147        O  0.07266353  0.05068124  0.14060738    -0.38300
O148        O  0.09647725  0.04799906  0.09472561    -0.38300
O149        O  0.97903877  0.07526374  0.04335815    -0.39000
O150        O  0.99495094  0.07912331  0.98767096    -0.39000
C151        C  0.16388791  0.08157136  0.17767958    -0.11300
C152        C  0.17155591  0.10888680  0.19025270     0.05700
C153        C  0.18306838  0.11638388  0.22663828    -0.06600
C154        C  0.18359203  0.09506278  0.25166931    -0.07400
C155        C  0.17302438  0.06649880  0.24012474    -0.01900
C156        C  0.16489605  0.06044450  0.20208323     0.04900
N157        N  0.15734990  0.03291805  0.18762302     0.67400
H158        H  0.15554064  0.07602404  0.14934348     0.16300
H159        H  0.19081735  0.10038601  0.28035694     0.16000
N160        N  0.19433605  0.14565723  0.23793075     0.75100
O161        O  0.13052717  0.01434819  0.18238708    -0.38300
O162        O  0.17638381  0.03134713  0.16946525    -0.38300
O163        O  0.17772198  0.15202121  0.25421407    -0.39000
O164        O  0.21758272  0.16602614  0.22343726    -0.39000
C165        C  0.35725889  0.25541679  0.28416253    -0.11300
C166        C  0.35279410  0.26975390  0.31242381     0.05700
C167        C  0.37585310  0.28329786  0.33890414    -0.06600
C168        C  0.40458867  0.29390820  0.32755332    -0.07400
C169        C  0.40978051  0.28850526  0.29176512    -0.01900
C170        C  0.38595031  0.26605786  0.27199115     0.04900
N171        N  0.38989263  0.25555219  0.23841859     0.67400
H172        H  0.33893596  0.24171754  0.26593052     0.16300
H173        H  0.42264008  0.30855659  0.34542766     0.16000
N174        N  0.37151257  0.29281921  0.37308221     0.75100
O175        O  0.38992750  0.23160616  0.24013245    -0.38300
O176        O  0.38410569  0.26465241  0.20749212    -0.38300
O177        O  0.37265266  0.27961804  0.40323352    -0.39000
O178        O  0.37583311  0.31853894  0.37412912    -0.39000
C179        C  0.05720090  0.40433957  0.39789589    -0.11300
C180        C  0.05894552  0.38402070  0.37666134     0.05700
C181        C  0.08318390  0.37940843  0.38296372    -0.06600
C182        C  0.10790805  0.39972805  0.40283441    -0.07400
C183        C  0.10926112  0.42564000  0.41218251    -0.01900
C184        C  0.08223570  0.42441627  0.41775142     0.04900
N185        N  0.08121517  0.44698273  0.43627729     0.67400
H186        H  0.03788996  0.40683413  0.39580325     0.16300
H187        H  0.12804907  0.39880157  0.40219703     0.16000
N188        N  0.08447995  0.35643330  0.36596965     0.75100
O189        O  0.08456227  0.46958905  0.41772449    -0.38300
O190        O  0.06926233  0.44080671  0.46766415    -0.38300
O191        O  0.09905694  0.36243030  0.33668356    -0.39000
O192        O  0.07892393  0.33348613  0.38543294    -0.39000
C193        C  0.48336610  0.45562670  0.17669480    -0.11300
C194        C  0.50652551  0.47446387  0.15229271     0.05700
C195        C  0.03457076  0.45779734  0.15144128    -0.06600
C196        C  0.03067510  0.43255013  0.17292580    -0.07400
C197        C  0.50139416  0.42097821  0.18983713    -0.01900
C198        C  0.48202014  0.43113924  0.19696061     0.04900
N199        N  0.46069679  0.41710195  0.22534066     0.67400
H200        H  0.46552294  0.45945023  0.18125992     0.16300
H201        H  0.04722064  0.42609339  0.17188387     0.16000
N202        N  0.05877848  0.47117161  0.12681936     0.75100
O203        O  0.46779883  0.42630286  0.25788364    -0.38300
O204        O  0.43378993  0.40243001  0.21612298    -0.38300
O205        O  0.57153278  0.48464163  0.11883790    -0.39000
O206        O  0.05471939  0.46137252  0.09462453    -0.39000
C207        C  0.04250933  0.24756988  0.33679796    -0.11300
C208        C  0.50062294  0.22009427  0.34831040     0.05700
C209        C  0.47444166  0.22175351  0.34404234    -0.06600
C210        C  0.47436972  0.24516656  0.32284033    -0.07400
C211        C  0.49949655  0.26665902  0.30421751    -0.01900
C212        C  0.04273578  0.27086694  0.31483268     0.04900
N213        N  0.06870209  0.29061668  0.29491350     0.67400
H214        H  0.06189146  0.24524777  0.33709662     0.16300
H215        H  0.45429947  0.24633955  0.32048430     0.16000
N216        N  0.44736809  0.19948273  0.35967979     0.75100
O217        O  0.09077808  0.30928884  0.31287089    -0.38300
O218        O  0.07261383  0.28338016  0.26388103    -0.38300
O219        O  0.43897105  0.20418161  0.38939696    -0.39000
O220        O  0.42863261  0.18000694  0.33887995    -0.39000
C221        C  0.11659214  0.17832641  0.24983258    -0.11300
C222        C  0.10171152  0.17352828  0.21517566     0.05700
C223        C  0.07244279  0.16744024  0.21288233    -0.06600
C224        C  0.05763295  0.16354194  0.24565811    -0.07400
C225        C  0.07180549  0.16600899  0.28074204    -0.01900
C226        C  0.10197838  0.17476745  0.28268378     0.04900
N227        N  0.11750419  0.17749066  0.31745814     0.67400
H228        H  0.13930392  0.18326213  0.25158885     0.16300
H229        H  0.03458510  0.15744865  0.24369757     0.16000
N230        N  0.05678495  0.16243478  0.17785165     0.75100
O231        O  0.12052491  0.15623628  0.33020336    -0.38300
O232        O  0.13539839  0.20283645  0.32821721    -0.38300
O233        O  0.04625200  0.13780826  0.16368806    -0.39000
O234        O  0.05886534  0.18399419  0.15790187    -0.39000
C235        C  0.49280678  0.05221704  0.45961843    -0.11300
C236        C  0.02199959  0.07291116  0.43813291     0.05700
C237        C  0.04544997  0.06803246  0.43172953    -0.06600
C238        C  0.04453778  0.04200883  0.44497178    -0.07400
C239        C  0.01962109  0.01824101  0.46246732    -0.01900
C240        C  0.49212461  0.02586043  0.47171662     0.04900
N241        N  0.46761250  0.00573735  0.49384006     0.67400
H242        H  0.47442583  0.05493850  0.46614876     0.16300
H243        H  0.06428043  0.04112538  0.44092847     0.16000
N244        N  0.07026039  0.08863566  0.41044168     0.75100
O245        O  0.46863624  0.01111097  0.52768513    -0.38300
O246        O  0.44252924  0.99263272  0.47801281    -0.38300
O247        O  0.09420672  0.10471962  0.42746640    -0.39000
O248        O  0.07086398  0.08410489  0.37652654    -0.39000
C249        C  0.21837436  0.96242739  0.24878040    -0.11300
C250        C  0.22487142  0.98736780  0.26853041     0.05700
C251        C  0.25200078  0.01320215  0.26078058    -0.06600
C252        C  0.27116103  0.01394113  0.23378659    -0.07400
C253        C  0.26460705  0.98910925  0.21384828    -0.01900
C254        C  0.23783770  0.96298296  0.22232897     0.04900
N255        N  0.23012957  0.93656647  0.20455902     0.67400
H256        H  0.19777936  0.94224480  0.25355929     0.16300
H257        H  0.29019841  0.55144278  0.24068681     0.16000
N258        N  0.26053738  0.03911941  0.28017043     0.75100
O259        O  0.23752500  0.91889616  0.21989391    -0.38300
O260        O  0.24204209  0.45263374  0.17879510    -0.38300
O261        O  0.27028049  0.04093659  0.31338486    -0.39000
O262        O  0.24074825  0.57046578  0.25924473    -0.39000
C263        C  0.28430353  0.40970961  0.29124185    -0.11300
C264        C  0.31255092  0.43056140  0.30360402     0.05700
C265        C  0.32479902  0.42306760  0.33558625    -0.06600
C266        C  0.31227426  0.39348175  0.34780391    -0.07400
C267        C  0.28892104  0.37200396  0.32715084    -0.01900
C268        C  0.27146975  0.38075863  0.30523501     0.04900
N269        N  0.24293626  0.35970831  0.29192683     0.67400
H270        H  0.27289477  0.41541291  0.26923102     0.16300
H271        H  0.32451864  0.38719129  0.36794137     0.16000
N272        N  0.35109608  0.44414997  0.35367859     0.75100
O273        O  0.22074031  0.35652153  0.30819060    -0.38300
O274        O  0.23981890  0.35093085  0.25931012    -0.38300
O275        O  0.34885681  0.45611581  0.38160404    -0.39000
O276        O  0.37420733  0.44289842  0.35044675    -0.39000
C277        C  0.41320365  0.09554194  0.28092668    -0.11300
C278        C  0.42033269  0.08235955  0.31174926     0.05700
C279        C  0.41007118  0.05217695  0.31305334    -0.06600
C280        C  0.39433986  0.03585552  0.28272396    -0.07400
C281        C  0.38900985  0.04918062  0.25031716    -0.01900
C282        C  0.39758588  0.07923410  0.25011922     0.04900
N283        N  0.39215130  0.09396541  0.21851114     0.67400
H284        H  0.42186486  0.11904445  0.27946012     0.16300
H285        H  0.38752857  0.01274500  0.28411447     0.16000
N286        N  0.41792929  0.03829207  0.34345487     0.75100
O287        O  0.36945705  0.09647670  0.21778163    -0.38300
O288        O  0.41325725  0.11101877  0.19774011    -0.38300
O289        O  0.39891431  0.02254907  0.36741027    -0.39000
O290        O  0.44031446  0.03556088  0.34097147    -0.39000
C291        C  0.45884523  0.50556292  0.12257789    -0.11300
C292        C  0.48160226  0.50746504  0.14764681     0.05700
C293        C  0.45220231  0.98851798  0.08726786    -0.06600
C294        C  0.42891483  0.98893118  0.10451631    -0.07400
C295        C  0.43077096  0.51106469  0.17195266    -0.01900
C296        C  0.43357788  0.50617977  0.13432569     0.04900
N297        N  0.41076415  0.50094731  0.10730941     0.67400
H298        H  0.45983501  0.50297911  0.09331066     0.16300
H299        H  0.42786094  0.98571795  0.13465058     0.16000
N300        N  0.47227137  0.98422856  0.11182323     0.75100
O301        O  0.41398773  0.52163699  0.08464823    -0.38300
O302        O  0.39328968  0.47488695  0.09864420    -0.38300
O303        O  0.48951450  0.00493688  0.13220175    -0.39000
O304        O  0.48754433  0.48959025  0.23635695    -0.39000
O305        O  0.35435419  0.47252824  0.70029972    -0.56900
C306        C  0.37776023  0.06159877  0.78373990     0.75800
O307        O  0.39086439  0.02060442  0.66550459    -0.58000
C308        C  0.33773726  0.44741688  0.68773243     0.75700
C309        C  0.31097470  0.03063444  0.70917060     0.78100
Cd310      Cd  0.36232690  0.02281133  0.72450761     1.37500
O311        O  0.37402814  0.03598109  0.78937807    -0.56900
O312        O  0.29404241  0.47139334  0.67573303    -0.55700
C313        C  0.39146717  0.50338201  0.59648076     0.78100
O314        O  0.30621457  0.51379563  0.65116953    -0.58100
O315        O  0.37683317  0.07016623  0.75002598    -0.56500
O316        O  0.32502519  0.44562739  0.65608440    -0.56500
O317        O  0.41410916  0.03118084  0.71734568    -0.55700
O318        O  0.04414246  0.19826698  0.75207483    -0.56900
C319        C  0.45257376  0.14666768  0.82325092     0.75800
O320        O  0.47606734  0.10377769  0.77070631    -0.58000
C321        C  0.05091840  0.20732198  0.78482480     0.75700
C322        C  0.48823546  0.18914703  0.70475673     0.78100
Cd323      Cd  0.49812745  0.15958934  0.77279916     1.37500
O324        O  0.44857652  0.14386991  0.78829956    -0.56900
O325        O  0.48103814  0.19040655  0.73736248    -0.55700
C326        C  0.99523366  0.10786019  0.78147066     0.78100
O327        O  0.49842458  0.17200147  0.70175610    -0.58100
O328        O  0.47897660  0.15922555  0.83542719    -0.56500
O329        O  0.03002991  0.19905583  0.80731809    -0.56500
O330        O  0.51896065  0.12659490  0.79573507    -0.55700
O331        O  0.50214896  0.35148773  0.69037973    -0.56900
C332        C  0.04255529  0.37803649  0.63839506     0.75800
O333        O  0.47132185  0.29212381  0.61206523    -0.58000
C334        C  0.47456474  0.33651860  0.69292647     0.75700
C335        C  0.49290355  0.39129981  0.58259938     0.78100
Cd336      Cd  0.50277682  0.34585688  0.62423493     1.37500
O337        O  0.01795876  0.36198512  0.65337006    -0.56900
O338        O  0.47444343  0.37256113  0.60537807    -0.55700
C339        C  0.49179046  0.28605358  0.61678314     0.78100
O340        O  0.51324323  0.38632908  0.57460750    -0.58100
O341        O  0.04294297  0.37968375  0.60292545    -0.56500
O342        O  0.45980045  0.32617851  0.66312693    -0.56500
O343        O  0.51760201  0.30793533  0.61496236    -0.55700
O344        O  0.12758711  0.15999406  0.80642897    -0.56900
C345        C  0.16060195  0.12247448  0.83640973     0.75800
O346        O  0.13612638  0.10116537  0.72706955    -0.58000
C347        C  0.13395909  0.18355897  0.78746872     0.75700
C348        C  0.21502913  0.19336779  0.76724037     0.78100
Cd349      Cd  0.15434175  0.14644782  0.76642372     1.37500
O350        O  0.14000606  0.12841202  0.83207653    -0.56900
O351        O  0.19454367  0.19708839  0.75276077    -0.55700
C352        C  0.11414061  0.10165243  0.71152840     0.78100
O353        O  0.20921499  0.16701969  0.77165144    -0.58100
O354        O  0.17478819  0.12471268  0.80786632    -0.56500
O355        O  0.14840607  0.18862219  0.75803569    -0.56500
O356        O  0.11220767  0.12375554  0.71857344    -0.55700
O357        O  0.18172034  0.05591369  0.84472046    -0.56900
C358        C  0.11701635  0.45478830  0.74844037     0.75800
O359        O  0.20984103  0.03508268  0.80324825    -0.58000
C360        C  0.18179461  0.05130322  0.87988007     0.75700
C361        C  0.11043030  0.48905376  0.86651871     0.78100
Cd362      Cd  0.15934745  0.00561000  0.82927527     1.37500
O363        O  0.12342067  0.48132476  0.74576632    -0.56900
O364        O  0.11319585  0.00759693  0.79760786    -0.55700
C365        C  0.20673839  0.02079933  0.77480103     0.78100
O366        O  0.10931534  0.98808147  0.85220040    -0.58100
O367        O  0.12378219  0.44583387  0.77911245    -0.56500
O368        O  0.17503142  0.02568389  0.89207380    -0.56500
O369        O  0.18053866  0.00035087  0.76869385    -0.55700
C370        C  0.49443732  0.50309590  0.52725895    -0.01500
C371        C  0.02091912  0.48938522  0.96700289    -0.01500
O372        O  0.37222360  0.36331047  0.78413101    -0.56900
C373        C  0.40914827  0.33209044  0.81254754     0.75800
O374        O  0.40561605  0.36497222  0.90242067    -0.58000
C375        C  0.35161843  0.36860474  0.78842043     0.75700
C376        C  0.31605789  0.28755607  0.84268035     0.78100
Cd377      Cd  0.37010255  0.34333834  0.84733105     1.37500
O378        O  0.40286600  0.35138689  0.80020674    -0.56900
O379        O  0.34114260  0.29125846  0.83642153    -0.55700
C380        C  0.40979521  0.39080452  0.89661341     0.78100
O381        O  0.31602385  0.30782364  0.85988252    -0.58100
O382        O  0.39839877  0.31835177  0.84326493    -0.56500
O383        O  0.33991609  0.36205931  0.82020022    -0.56500
O384        O  0.39235680  0.39311056  0.87285220    -0.55700
C385        C  0.45633578  0.41407889  0.93601003    -0.11300
C386        C  0.43471232  0.41712342  0.91476301     0.05700
C387        C  0.43995274  0.44598632  0.90696996    -0.06600
C388        C  0.46423259  0.46997716  0.92329567    -0.07400
C389        C  0.48469163  0.46708710  0.94793398    -0.01900
C390        C  0.48167961  0.43842811  0.95056407     0.04900
N391        N  0.50540047  0.43379494  0.96322501     0.67400
H392        H  0.45468787  0.39274418  0.93930195     0.16300
H393        H  0.46757787  0.49124342  0.91406050     0.16000
N394        N  0.42245800  0.45210789  0.88002818     0.75100
O395        O  0.50271189  0.41889640  0.99325525    -0.38300
O396        O  0.52226457  0.43443252  0.93894330    -0.38300
O397        O  0.40399428  0.45833281  0.89129013    -0.39000
O398        O  0.43173459  0.46021411  0.84721216    -0.39000
C399        C  0.46968015  0.47676365  0.46533185    -0.11300
C400        C  0.49355211  0.50142165  0.48251107     0.05700
C401        C  0.03981787  0.01547243  0.57327722    -0.06600
C402        C  0.00511853  0.02512495  0.92008142    -0.07400
C403        C  0.02182197  0.48699955  0.01154975    -0.01900
C404        C  0.48761699  0.47321335  0.03414097     0.04900
N405        N  0.46241248  0.44769448  0.02016869     0.67400
H406        H  0.45192718  0.46081195  0.48272613     0.16300
H407        H  0.02337418  0.04117509  0.90338784     0.16000
N408        N  0.06572003  0.04026487  0.58710968     0.75100
O409        O  0.45911037  0.42273729  0.02931995    -0.38300
O410        O  0.44051863  0.44938243  0.00694953    -0.38300
O411        O  0.02661884  0.57081520  0.45590330    -0.39000
O412        O  0.07023603  0.06548804  0.57678366    -0.39000
C413        C  0.09117169  0.48515080  0.93334195    -0.11300
C414        C  0.08887412  0.48910356  0.89407996     0.05700
C415        C  0.04906519  0.99677083  0.80500960    -0.06600
C416        C  0.02386414  0.99787287  0.81500245    -0.07400
C417        C  0.04704183  0.48967268  0.94510499    -0.01900
C418        C  0.07077164  0.48499820  0.95871493     0.04900
N419        N  0.07367662  0.47763803  0.99717938     0.67400
H420        H  0.10858370  0.48133037  0.94460662     0.16300
H421        H  0.01165441  0.00229201  0.79387657     0.16000
N422        N  0.05568858  0.00050433  0.76674773     0.75100
O423        O  0.09421092  0.49678983  0.01657851    -0.38300
O424        O  0.06407933  0.45103362  0.00697914    -0.38300
O425        O  0.04358980  0.97828959  0.74712571    -0.39000
O426        O  0.06305764  0.02528337  0.75146676    -0.39000
C427        C  0.23897295  0.23988709  0.80027079    -0.11300
C428        C  0.24203044  0.21811113  0.78389549     0.05700
C429        C  0.26907994  0.21854401  0.78914890    -0.06600
C430        C  0.29206187  0.24030738  0.81025263    -0.07400
C431        C  0.28905393  0.26215896  0.82671271    -0.01900
C432        C  0.26189343  0.26163457  0.82140044     0.04900
N433        N  0.25726465  0.28347435  0.83598150     0.67400
H434        H  0.21823768  0.23974668  0.79735062     0.16300
H435        H  0.31283440  0.24052067  0.81277945     0.16000
N436        N  0.27442302  0.19827729  0.77149003     0.75100
O437        O  0.26087082  0.30511207  0.81491775    -0.38300
O438        O  0.24183149  0.27696144  0.86457365    -0.38300
O439        O  0.28860303  0.20651935  0.74161524    -0.39000
O440        O  0.27311047  0.17670681  0.79061352    -0.39000
C441        C  0.06435093  0.02584301  0.67184930    -0.11300
C442        C  0.03986518  0.02726678  0.65554952     0.05700
C443        C  0.04291353  0.05605884  0.65429720    -0.06600
C444        C  0.06712784  0.07957526  0.67225049    -0.07400
C445        C  0.09087995  0.07722917  0.68844846    -0.01900
C446        C  0.09016471  0.05043645  0.68487989     0.04900
N447        N  0.11512237  0.04716921  0.69500983     0.67400
H448        H  0.06433729  0.00564239  0.67529995     0.16300
H449        H  0.06737817  0.10018677  0.67305542     0.16000
N450        N  0.02180811  0.06242975  0.63561558     0.75100
O451        O  0.11537326  0.03396448  0.72552440    -0.38300
O452        O  0.13169499  0.04915578  0.66947856    -0.38300
O453        O  0.00627962  0.06829989  0.65506480    -0.39000
O454        O  0.02618864  0.07233102  0.60218976    -0.39000
C455        C  0.19833032  0.12189166  0.87823901    -0.11300
C456        C  0.16848125  0.11289915  0.87213691     0.05700
C457        C  0.14739995  0.08847977  0.89286742    -0.06600
C458        C  0.15580583  0.06919321  0.91071745    -0.07400
C459        C  0.18398160  0.07355744  0.90412234    -0.01900
C460        C  0.20637975  0.10248861  0.89573973     0.04900
N461        N  0.23662377  0.11017166  0.89610318     0.67400
H462        H  0.21507781  0.14193069  0.86456368     0.16300
H463        H  0.13863464  0.04785857  0.92089737     0.16000
N464        N  0.11715882  0.08091901  0.89107324     0.75100
O465        O  0.24742463  0.10812896  0.86667271    -0.38300
O466        O  0.25372621  0.12703926  0.92061164    -0.38300
O467        O  0.10055699  0.06548702  0.86515033    -0.39000
O468        O  0.10915305  0.09513633  0.90949602    -0.39000
C469        C  0.45741085  0.34839772  0.78863911    -0.11300
C470        C  0.42796399  0.32641848  0.79076928     0.05700
C471        C  0.41536950  0.30520171  0.76365854    -0.06600
C472        C  0.43161622  0.30805974  0.73272187    -0.07400
C473        C  0.46028883  0.33171973  0.72865005    -0.01900
C474        C  0.47385439  0.35119806  0.75793501     0.04900
N475        N  0.50305380  0.37571594  0.75540034     0.67400
H476        H  0.46687039  0.36508898  0.80917727     0.16300
H477        H  0.42119896  0.29251926  0.71094917     0.16000
N478        N  0.38534258  0.28224820  0.76536809     0.75100
O479        O  0.50658973  0.40013529  0.74267868    -0.38300
O480        O  0.52340640  0.37507195  0.77507686    -0.38300
O481        O  0.36642335  0.28382053  0.74360325    -0.39000
O482        O  0.37957327  0.25771549  0.78050183    -0.39000
C483        C  0.08399890  0.42620179  0.65312250    -0.11300
C484        C  0.06821533  0.39610362  0.66201827     0.05700
C485        C  0.07217016  0.38535677  0.69764067    -0.06600
C486        C  0.08934429  0.40494290  0.72481279    -0.07400
C487        C  0.10236524  0.43522109  0.71736602    -0.01900
C488        C  0.10080250  0.44591181  0.68049542     0.04900
N489        N  0.11509554  0.47656726  0.67046233     0.67400
H490        H  0.08117725  0.43467579  0.62578433     0.16300
H491        H  0.09113286  0.39627561  0.75246774     0.16000
N492        N  0.05789848  0.35465376  0.70730095     0.75100
O493        O  0.13960809  0.48838459  0.65469929    -0.38300
O494        O  0.09998686  0.48917071  0.66739135    -0.38300
O495        O  0.07307736  0.34212323  0.70967664    -0.39000
O496        O  0.03366670  0.34277197  0.72374713    -0.39000
C497        C  0.46947411  0.44960056  0.55802788    -0.11300
C498        C  0.49528045  0.47412750  0.54291084     0.05700
C499        C  0.99469109  0.46483284  0.50532738    -0.06600
C500        C  0.99507546  0.43852932  0.51489027    -0.07400
C501        C  0.49218909  0.41859586  0.56799609    -0.01900
C502        C  0.46799263  0.42298510  0.57109261     0.04900
N503        N  0.44114957  0.40049887  0.58684219     0.67400
H504        H  0.44934075  0.45026713  0.55952969     0.16300
H505        H  0.01117251  0.43490790  0.50218193     0.16000
N506        N  0.01434228  0.48345144  0.47679226     0.75100
O507        O  0.43618326  0.40186784  0.62041942    -0.38300
O508        O  0.41978466  0.38535315  0.56520376    -0.38300
O509        O  0.56872830  0.50351051  0.53999562    -0.39000
O510        O  0.00637826  0.47663634  0.44346721    -0.39000
C511        C  0.95782759  0.21625347  0.65904381    -0.11300
C512        C  0.48539453  0.20799628  0.67326244     0.05700
C513        C  0.50754288  0.22429887  0.64670927    -0.06600
C514        C  0.50817971  0.24837937  0.62591067    -0.07400
C515        C  0.48622609  0.25590287  0.62939110    -0.01900
C516        C  0.95575189  0.23781721  0.63573870     0.04900
N517        N  0.92820666  0.23718899  0.63352760     0.67400
H518        H  0.93854955  0.19999832  0.67401235     0.16300
H519        H  0.52683616  0.26219076  0.60841437     0.16000
N520        N  0.53104759  0.21859944  0.64270706     0.75100
O521        O  0.90857329  0.22051037  0.61093993    -0.38300
O522        O  0.92074140  0.24584757  0.66064627    -0.38300
O523        O  0.53041377  0.20468055  0.61514051    -0.39000
O524        O  0.55541334  0.23471468  0.65872489    -0.39000
C525        C  0.12396303  0.22365291  0.76966018    -0.11300
C526        C  0.12323115  0.20319957  0.79710788     0.05700
C527        C  0.10745251  0.19841122  0.82980499    -0.06600
C528        C  0.08695209  0.20798669  0.82998748    -0.07400
C529        C  0.08184879  0.22119386  0.79731903    -0.01900
C530        C  0.10363532  0.23322806  0.76982687     0.04900
N531        N  0.10175131  0.24999812  0.73792897     0.67400
H532        H  0.13766846  0.22941601  0.74551885     0.16300
H533        H  0.07168727  0.20033907  0.85274982     0.16000
N534        N  0.11033311  0.18193508  0.86138873     0.75100
O535        O  0.11816485  0.27748389  0.73731099    -0.38300
O536        O  0.09243466  0.23765395  0.70730031    -0.38300
O537        O  0.13500281  0.19128588  0.87802683    -0.39000
O538        O  0.08983720  0.15619570  0.86889270    -0.39000
C539        C  0.46614588  0.05215639  0.82012360    -0.11300
C540        C  0.99399878  0.08033792  0.79971660     0.05700
C541        C  0.01844626  0.07585972  0.80435382    -0.06600
C542        C  0.01600386  0.05051837  0.82403074    -0.07400
C543        C  0.98944682  0.02812125  0.84023911    -0.01900
C544        C  0.46235339  0.02645569  0.84001557     0.04900
N545        N  0.43605006  0.01021048  0.86085032     0.67400
H546        H  0.44813378  0.05671260  0.81892987     0.16300
H547        H  0.03594326  0.04934781  0.82725864     0.16000
N548        N  0.04636928  0.09684129  0.78961937     0.75100
O549        O  0.43638274  0.01781739  0.89353894    -0.38300
O550        O  0.41172041  0.99809565  0.84313965    -0.38300
O551        O  0.06715113  0.11171661  0.81210767    -0.39000
O552        O  0.05245385  0.09375283  0.75734530    -0.39000
C553        C  0.23001912  0.00705623  0.72502474    -0.11300
C554        C  0.23278787  0.02678303  0.75177243     0.05700
C555        C  0.26144115  0.05064126  0.75881630    -0.06600
C556        C  0.28620773  0.05298410  0.74177025    -0.07400
C557        C  0.28371758  0.03199977  0.71745502    -0.01900
C558        C  0.25499172  0.00962550  0.70787564     0.04900
N559        N  0.25091993  0.98916816  0.68089204     0.67400
H560        H  0.20845484  0.98889829  0.71826533     0.16300
H561        H  0.24407753  0.44604327  0.71173076     0.16000
N562        N  0.26607371  0.07196440  0.78485675     0.75100
O563        O  0.24705319  0.96424130  0.69162256    -0.38300
O564        O  0.30933940  0.56107429  0.69416606    -0.38300
O565        O  0.27203757  0.06835572  0.81864970    -0.39000
O566        O  0.20836554  0.43184295  0.79087855    -0.39000
C567        C  0.34782680  0.40706014  0.69723249    -0.11300
C568        C  0.33424844  0.42182201  0.70944915     0.05700
C569        C  0.32284664  0.41579980  0.74547981    -0.06600
C570        C  0.32657411  0.39617413  0.76960260    -0.07400
C571        C  0.34276136  0.38344601  0.75894843    -0.01900
C572        C  0.35254199  0.38810056  0.72181876     0.04900
N573        N  0.36850074  0.37513201  0.70901262     0.67400
H574        H  0.35686797  0.41202466  0.66951023     0.16300
H575        H  0.31865210  0.39273610  0.79777922     0.16000
N576        N  0.30934349  0.43100657  0.75895895     0.75100
O577        O  0.35508182  0.35295880  0.68943370    -0.38300
O578        O  0.39619962  0.39028753  0.70763874    -0.38300
O579        O  0.28161735  0.41853634  0.75898983    -0.39000
O580        O  0.32422006  0.45213402  0.77982531    -0.39000
C581        C  0.40187835  0.13109057  0.83122272    -0.11300
C582        C  0.42698749  0.13168700  0.84773359     0.05700
C583        C  0.42278838  0.10451320  0.86289564    -0.06600
C584        C  0.40315637  0.07930456  0.84412126    -0.07400
C585        C  0.38562713  0.08141639  0.81458842    -0.01900
C586        C  0.38194509  0.10627031  0.81183485     0.04900
N587        N  0.35938102  0.10719878  0.78878738     0.67400
H588        H  0.40189591  0.15146859  0.82485344     0.16300
H589        H  0.40438668  0.05948038  0.84953834     0.16000
N590        N  0.44326893  0.10301657  0.88948738     0.75100
O591        O  0.33613640  0.10224310  0.80405342    -0.38300
O592        O  0.36607527  0.12137911  0.75773175    -0.38300
O593        O  0.43491558  0.09364117  0.92238984    -0.39000
O594        O  0.46533764  0.10255937  0.87807479    -0.39000
C595        C  0.44328449  0.50249683  0.52167685    -0.11300
C596        C  0.46652397  0.50267553  0.54411048     0.05700
C597        C  0.48850165  0.02702762  0.68456831    -0.06600
C598        C  0.46424111  0.03004927  0.69347031    -0.07400
C599        C  0.41640744  0.50316224  0.57613023    -0.01900
C600        C  0.41868802  0.50246143  0.53697358     0.04900
N601        N  0.39695957  0.50276690  0.51167487     0.67400
H602        H  0.44425041  0.50330462  0.49164247     0.16300
H603        H  0.46356632  0.03603045  0.72154887     0.16000
N604        N  0.50905083  0.03171499  0.71434281     0.75100
O605        O  0.40176908  0.52697998  0.49643585    -0.38300
O606        O  0.37917052  0.47945348  0.49591202    -0.38300
O607        O  0.52917196  0.05762869  0.71959822    -0.39000
O608        O  0.48050698  0.48051615  0.62759828    -0.39000
O609        O  0.34029738  0.95832684  0.21540539    -0.56900
C610        C  0.37078500  0.55831917  0.27408443     0.75800
O611        O  0.38036765  0.50550452  0.17111831    -0.58000
C612        C  0.32374598  0.93412171  0.20075747     0.75700
C613        C  0.29731626  0.50723960  0.21766566     0.78100
Cd614      Cd  0.35385883  0.50896798  0.23064261     1.37500
O615        O  0.36871084  0.53467510  0.28827067    -0.56900
O616        O  0.31100100  0.01350971  0.17989526    -0.55700
C617        C  0.38392102  0.99383563  0.10780294     0.78100
O618        O  0.28616910  0.96691245  0.17755377    -0.58100
O619        O  0.36705719  0.55973651  0.23897439    -0.56500
O620        O  0.31449050  0.93472835  0.16746207    -0.56500
O621        O  0.40508606  0.51724178  0.22206676    -0.55700
O622        O  0.04158581  0.69074963  0.23807800    -0.56900
C623        C  0.45180565  0.65070160  0.30546557     0.75800
O624        O  0.48315937  0.60984152  0.30108085    -0.58000
C625        C  0.05150044  0.70273120  0.26888688     0.75700
C626        C  0.50387971  0.69439485  0.20148828     0.78100
Cd627      Cd  0.50371017  0.66049349  0.27179868     1.37500
O628        O  0.45342225  0.64789648  0.27102254    -0.56900
O629        O  0.52353133  0.70477420  0.22688646    -0.55700
C630        C  0.98881904  0.60292563  0.27039972     0.78100
O631        O  0.48537348  0.66721158  0.20604342    -0.58100
O632        O  0.47565272  0.66178191  0.32453460    -0.56500
O633        O  0.03296114  0.69744070  0.29379883    -0.56500
O634        O  0.51995376  0.62089708  0.26805031    -0.55700
O635        O  0.47842103  0.82738024  0.17963855    -0.56900
C636        C  0.03413695  0.87774186  0.15516337     0.75800
O637        O  0.46825691  0.78447218  0.10825904    -0.58000
C638        C  0.45092149  0.81667074  0.17485334     0.75700
C639        C  0.48018097  0.88012644  0.06637060     0.78100
Cd640      Cd  0.49029417  0.83920770  0.11590025     1.37500
O641        O  0.01121754  0.85773018  0.17066896    -0.56900
O642        O  0.46049322  0.86096855  0.08745106    -0.55700
C643        C  0.49234305  0.78449567  0.11335635     0.78100
O644        O  0.50187548  0.87630546  0.06186049    -0.58100
O645        O  0.03340663  0.88109192  0.11991013    -0.56500
O646        O  0.44113427  0.81558521  0.14155482    -0.56500
O647        O  0.51524091  0.80964849  0.11072626    -0.55700
O648        O  0.13834616  0.66486999  0.29361219    -0.56900
C649        C  0.18373369  0.63273862  0.32210632     0.75800
O650        O  0.14077908  0.62652171  0.19386846    -0.58000
C651        C  0.14142936  0.68592823  0.27136003     0.75700
C652        C  0.22622487  0.70075152  0.25672164     0.78100
Cd653      Cd  0.16670504  0.65199193  0.25537297     1.37500
O654        O  0.16360880  0.63938178  0.32256799    -0.56900
O655        O  0.22115209  0.67460343  0.25573173    -0.55700
C656        C  0.12346257  0.60145077  0.20896341     0.78100
O657        O  0.20523357  0.70486015  0.24553361    -0.58100
O658        O  0.19411632  0.63364626  0.29066370    -0.56500
O659        O  0.15477342  0.68962984  0.24139953    -0.56500
O660        O  0.12718634  0.59943714  0.24387638    -0.55700
O661        O  0.18549435  0.55173735  0.33903260    -0.56900
C662        C  0.11097948  0.94950199  0.26869072     0.75800
O663        O  0.18375606  0.48040781  0.31055997    -0.58000
C664        C  0.19217231  0.55255463  0.37355071     0.75700
C665        C  0.11414326  0.99269778  0.37952815     0.78100
Cd666      Cd  0.15329827  0.49968112  0.33756957     1.37500
O667        O  0.11730343  0.97600027  0.26685390    -0.56900
O668        O  0.10057722  0.48319595  0.30858919    -0.55700
C669        C  0.19372761  0.49871450  0.28303666     0.78100
O670        O  0.11747982  0.51576950  0.34899068    -0.58100
O671        O  0.12082155  0.94104898  0.29701895    -0.56500
O672        O  0.18371942  0.52825927  0.39147698    -0.56500
O673        O  0.18313396  0.51571585  0.27824833    -0.55700
C674        C  0.48304793  0.99420818  0.02750468    -0.01500
C675        C  0.01871608  0.98766597  0.47252724    -0.01500
O676        O  0.37176478  0.86173568  0.29128071    -0.56900
C677        C  0.40206601  0.82408969  0.30463862     0.75800
O678        O  0.39324926  0.88647401  0.38813031    -0.58000
C679        C  0.34940769  0.86364031  0.29844505     0.75700
C680        C  0.31878307  0.78597007  0.35200085     0.78100
Cd681      Cd  0.37341967  0.83998081  0.35358506     1.37500
O682        O  0.39920847  0.84650289  0.29908998    -0.56900
O683        O  0.34212296  0.78512937  0.36040579    -0.55700
C684        C  0.41446955  0.88566358  0.40530464     0.78100
O685        O  0.31967613  0.80982537  0.35756108    -0.58100
O686        O  0.39553878  0.81073321  0.33641886    -0.56500
O687        O  0.34018109  0.85668537  0.33155137    -0.56500
O688        O  0.41469913  0.86193387  0.40280165    -0.55700
C689        C  0.46124270  0.90915542  0.44442263    -0.11300
C690        C  0.43853407  0.91155483  0.42517762     0.05700
C691        C  0.44162543  0.93976932  0.42105007    -0.06600
C692        C  0.46647833  0.96413022  0.43579576    -0.07400
C693        C  0.48850628  0.96206218  0.45802271    -0.01900
C694        C  0.48610572  0.93355395  0.45980208     0.04900
N695        N  0.51003243  0.92910309  0.47199132     0.67400
H696        H  0.46059683  0.88825812  0.44595070     0.16300
H697        H  0.46861938  0.98504333  0.42748908     0.16000
N698        N  0.42054269  0.94485948  0.40017780     0.75100
O699        O  0.50745778  0.91406881  0.50186918    -0.38300
O700        O  0.52638811  0.92934126  0.44727758    -0.38300
O701        O  0.40175359  0.94732438  0.41766878    -0.39000
O702        O  0.42628172  0.95553854  0.36714954    -0.39000
C703        C  0.45608402  0.97221027  0.96401724    -0.11300
C704        C  0.48089561  0.99538843  0.98245763     0.05700
C705        C  0.04721498  0.51452133  0.06867414    -0.06600
C706        C  0.98531679  0.52235678  0.40603528    -0.07400
C707        C  0.01839494  0.98568578  0.51701109    -0.01900
C708        C  0.49492841  0.97347104  0.54312645     0.04900
N709        N  0.47006751  0.94646900  0.53216428     0.67400
H710        H  0.43801983  0.95603296  0.98075158     0.16300
H711        H  0.99714126  0.54185913  0.38826973     0.16000
N712        N  0.07556105  0.53546412  0.08306935     0.75100
O713        O  0.46933175  0.92267837  0.54175469    -0.38300
O714        O  0.44660794  0.94582637  0.52070037    -0.38300
O715        O  0.05485668  0.04840994  0.98373798    -0.39000
O716        O  0.08548641  0.56213095  0.07342166    -0.39000
C717        C  0.09192176  0.98679478  0.44449587    -0.11300
C718        C  0.09101660  0.99115372  0.40524963     0.05700
C719        C  0.04061612  0.47970285  0.31142920    -0.06600
C720        C  0.01404646  0.47935824  0.31725809    -0.07400
C721        C  0.04579638  0.98850935  0.45253221    -0.01900
C722        C  0.07039883  0.98613841  0.46818617     0.04900
N723        N  0.07431206  0.98255665  0.50746194     0.67400
H724        H  0.10990786  0.98449728  0.45716444     0.16300
H725        H  0.99592307  0.46554333  0.29932969     0.16000
N726        N  0.04066240  0.46146417  0.28395819     0.75100
O727        O  0.09397170  0.00431682  0.52441755    -0.38300
O728        O  0.06696449  0.95720908  0.52109216    -0.38300
O729        O  0.02929528  0.43433266  0.29168398    -0.39000
O730        O  0.04350824  0.47046845  0.25018453    -0.39000
C731        C  0.26618598  0.71416233  0.30509871    -0.11300
C732        C  0.25285446  0.72368160  0.27671575     0.05700
C733        C  0.26128803  0.75375310  0.27428964    -0.06600
C734        C  0.28127963  0.77281873  0.30073016    -0.07400
C735        C  0.29406974  0.76310368  0.32961023    -0.01900
C736        C  0.28659922  0.73338632  0.33112096     0.04900
N737        N  0.29838721  0.72185442  0.35980133     0.67400
H738        H  0.25981410  0.69120547  0.30824486     0.16300
H739        H  0.28787082  0.79586796  0.29747922     0.16000
N740        N  0.25134114  0.76588169  0.24401186     0.75100
O741        O  0.28340698  0.70922649  0.38848111    -0.38300
O742        O  0.31831864  0.71657632  0.35178138    -0.38300
O743        O  0.23361433  0.77454170  0.25042061    -0.39000
O744        O  0.26678280  0.77608655  0.21522828    -0.39000
C745        C  0.06729207  0.52327223  0.17943341    -0.11300
C746        C  0.04871931  0.52720126  0.15241921     0.05700
C747        C  0.05619377  0.55723433  0.14424988    -0.06600
C748        C  0.08144078  0.58075867  0.16098745    -0.07400
C749        C  0.09932874  0.57606802  0.18786284    -0.01900
C750        C  0.09167085  0.54666783  0.19686041     0.04900
N751        N  0.10810980  0.53968461  0.22441041     0.67400
H752        H  0.06250003  0.50176795  0.18944977     0.16300
H753        H  0.08600508  0.60297961  0.15446010     0.16000
N754        N  0.03727555  0.56463804  0.12168879     0.75100
O755        O  0.09925710  0.53372320  0.25749705    -0.38300
O756        O  0.12464532  0.53069346  0.21396802    -0.38300
O757        O  0.02037732  0.57061787  0.13800678    -0.39000
O758        O  0.04448105  0.57490777  0.08875756    -0.39000
C759        C  0.22201530  0.62558752  0.35503579    -0.11300
C760        C  0.19401802  0.62265079  0.35561191     0.05700
C761        C  0.17434421  0.60394282  0.38320924    -0.06600
C762        C  0.18037726  0.58366827  0.40317810    -0.07400
C763        C  0.20375314  0.58033417  0.39197949    -0.01900
C764        C  0.22746607  0.60498458  0.37459150     0.04900
N765        N  0.25486552  0.60618802  0.36979924     0.67400
H766        H  0.23837584  0.64153977  0.33601753     0.16300
H767        H  0.16287992  0.56607509  0.41944599     0.16000
N768        N  0.14611942  0.60143697  0.38591043     0.75100
O769        O  0.26131192  0.60335315  0.33762428    -0.38300
O770        O  0.27548547  0.61955745  0.39320372    -0.38300
O771        O  0.12504099  0.58402044  0.36545773    -0.39000
O772        O  0.14420205  0.62117556  0.40131821    -0.39000
C773        C  0.39591430  0.81336347  0.23912111    -0.11300
C774        C  0.40997078  0.81338111  0.27341358     0.05700
C775        C  0.43237157  0.80613637  0.27526617    -0.06600
C776        C  0.44361994  0.80401173  0.24205187    -0.07400
C777        C  0.43224006  0.80830188  0.20735214    -0.01900
C778        C  0.40651595  0.81040999  0.20607584     0.04900
N779        N  0.39221159  0.81196190  0.17170220     0.67400
H780        H  0.37747398  0.81728951  0.23777531     0.16300
H781        H  0.46268644  0.80110181  0.24342912     0.16000
N782        N  0.44536120  0.80296343  0.30995058     0.75100
O783        O  0.36980964  0.78897067  0.16081961    -0.38300
O784        O  0.39617025  0.83653449  0.15901001    -0.38300
O785        O  0.43912520  0.77752473  0.32202760    -0.39000
O786        O  0.46869786  0.82466116  0.32164821    -0.39000
C787        C  0.07099257  0.88542822  0.20508190    -0.11300
C788        C  0.05907360  0.89739073  0.17827105     0.05700
C789        C  0.06605793  0.92666267  0.17989981    -0.06600
C790        C  0.08287573  0.94279326  0.20977210    -0.07400
C791        C  0.09371305  0.93064262  0.23796674    -0.01900
C792        C  0.08881998  0.90202004  0.23454121     0.04900
N793        N  0.10135698  0.88932047  0.26050192     0.67400
H794        H  0.06554808  0.86278233  0.20386340     0.16300
H795        H  0.08656618  0.96480950  0.21131053     0.16000
N796        N  0.05372391  0.93944747  0.15371624     0.75100
O797        O  0.08574257  0.87200432  0.28645711    -0.38300
O798        O  0.12396008  0.88875510  0.25147060    -0.38300
O799        O  0.03134494  0.94046716  0.16262579    -0.39000
O800        O  0.06945725  0.95647722  0.12763842    -0.39000
C801        C  0.45743140  0.93868908  0.04598560    -0.11300
C802        C  0.48440941  0.96471177  0.03750886     0.05700
C803        C  0.00736598  0.97052733  0.03996628    -0.06600
C804        C  0.00260264  0.94216131  0.05004782    -0.07400
C805        C  0.47961337  0.90731210  0.05158154    -0.01900
C806        C  0.45506605  0.91114435  0.05425635     0.04900
N807        N  0.42712218  0.88734090  0.06539971     0.67400
H808        H  0.43715777  0.93920576  0.04678381     0.16300
H809        H  0.02116942  0.93852849  0.04962393     0.16000
N810        N  0.03649653  0.99064971  0.02778923     0.75100
O811        O  0.41941635  0.88550088  0.09860625    -0.38300
O812        O  0.40755005  0.87455441  0.04059035    -0.38300
O813        O  0.55621546  0.98835733  0.05806386    -0.39000
O814        O  0.04333424  0.98471971  0.99799719    -0.39000
C815        C  0.95397966  0.71341781  0.15942954    -0.11300
C816        C  0.50122358  0.71385062  0.17062390     0.05700
C817        C  0.52588540  0.73960741  0.15614345    -0.06600
C818        C  0.52212756  0.76076836  0.13429300    -0.07400
C819        C  0.49413895  0.75755935  0.12644523    -0.01900
C820        C  0.95145745  0.73591517  0.13942733     0.04900
N821        N  0.92566652  0.73772462  0.14472678     0.67400
H822        H  0.93594189  0.69785537  0.17682085     0.16300
H823        H  0.54163250  0.78081006  0.12534558     0.16000
N824        N  0.55516747  0.74520267  0.16379098     0.75100
O825        O  0.90238382  0.72126947  0.12674231    -0.38300
O826        O  0.92379198  0.74829208  0.17426813    -0.38300
O827        O  0.56818617  0.74067921  0.13875398    -0.39000
O828        O  0.57039623  0.76287301  0.18859632    -0.39000
C829        C  0.12507590  0.72029867  0.24754800    -0.11300
C830        C  0.12823571  0.70400583  0.27798159     0.05700
C831        C  0.11402286  0.70118246  0.31140652    -0.06600
C832        C  0.09156896  0.70815320  0.31076167    -0.07400
C833        C  0.08322610  0.71717107  0.27684062    -0.01900
C834        C  0.10268011  0.72710953  0.24669903     0.04900
N835        N  0.09711264  0.73938088  0.21262307     0.67400
H836        H  0.13736362  0.72451850  0.22237982     0.16300
H837        H  0.07780825  0.70191740  0.33494101     0.16000
N838        N  0.12036565  0.68890904  0.34490046     0.75100
O839        O  0.11294825  0.76659050  0.20568748    -0.38300
O840        O  0.08474459  0.72293703  0.18565879    -0.38300
O841        O  0.14584755  0.70202828  0.35963194    -0.39000
O842        O  0.10245763  0.66294292  0.35588911    -0.39000
C843        C  0.47402648  0.55326743  0.32496391    -0.11300
C844        C  0.98580555  0.57410975  0.28549013     0.05700
C845        C  0.00959112  0.56870299  0.28892241    -0.06600
C846        C  0.00603392  0.54223810  0.30593553    -0.07400
C847        C  0.97995802  0.52104811  0.32432631    -0.01900
C848        C  0.47139797  0.52737517  0.34287222     0.04900
N849        N  0.44478249  0.50904396  0.36235107     0.67400
H850        H  0.45563529  0.55708797  0.32613837     0.16300
H851        H  0.02501068  0.53950664  0.30542343     0.16000
N852        N  0.03818814  0.59027347  0.27654594     0.75100
O853        O  0.44391717  0.51422075  0.39591295    -0.38300
O854        O  0.42098681  0.49787636  0.34345217    -0.38300
O855        O  0.05764188  0.60501942  0.30059798    -0.39000
O856        O  0.04608817  0.58845942  0.24475997    -0.39000
C857        C  0.21704358  0.47722343  0.24483314    -0.11300
C858        C  0.21831679  0.50171381  0.26000405     0.05700
C859        C  0.24485980  0.52876685  0.25686374    -0.06600
C860        C  0.26960825  0.53082984  0.24008252    -0.07400
C861        C  0.26880145  0.50610796  0.22601022    -0.01900
C862        C  0.24167781  0.47931823  0.22754737     0.04900
N863        N  0.23924681  0.45358213  0.21327779     0.67400
H864        H  0.19698399  0.45617740  0.24704359     0.16300
H865        H  0.29180856  0.03408957  0.22913708     0.16000
N866        N  0.24827367  0.55324906  0.27572353     0.75100
O867        O  0.23993347  0.43442676  0.23564892    -0.38300
O868        O  0.22112184  0.93364053  0.17096368    -0.38300
O869        O  0.25147612  0.55315551  0.31079632    -0.39000
O870        O  0.25296726  0.05723591  0.26706214    -0.39000
C871        C  0.32928916  0.89081307  0.20736294    -0.11300
C872        C  0.31821344  0.90726034  0.22162459     0.05700
C873        C  0.31136455  0.90367221  0.25968358    -0.06600
C874        C  0.31973011  0.88721717  0.28372997    -0.07400
C875        C  0.33524012  0.87459947  0.27054322    -0.01900
C876        C  0.33812891  0.87460774  0.23160091     0.04900
N877        N  0.35085501  0.85935458  0.21621299     0.67400
H878        H  0.33413813  0.89310653  0.17795377     0.16300
H879        H  0.31621151  0.88647801  0.31334348     0.16000
N880        N  0.29850364  0.91883536  0.27504755     0.75100
O881        O  0.33397502  0.83390346  0.20502618    -0.38300
O882        O  0.37658901  0.87389034  0.20380428    -0.38300
O883        O  0.27181739  0.90448295  0.28401528    -0.39000
O884        O  0.31513984  0.94308928  0.28953281    -0.39000
C885        C  0.40070017  0.63635251  0.29753457    -0.11300
C886        C  0.42268298  0.63716326  0.32225860     0.05700
C887        C  0.41535115  0.61163416  0.34492574    -0.06600
C888        C  0.39432654  0.58462451  0.33125054    -0.07400
C889        C  0.37978637  0.58373163  0.29702383    -0.01900
C890        C  0.37996476  0.60952198  0.28290500     0.04900
N891        N  0.36164092  0.60942981  0.25191810     0.67400
H892        H  0.40410539  0.65638478  0.28275664     0.16300
H893        H  0.39255602  0.56479295  0.34468609     0.16000
N894        N  0.43376021  0.61189368  0.37587524     0.75100
O895        O  0.33912257  0.61112983  0.25810783    -0.38300
O896        O  0.37231815  0.61663359  0.21972223    -0.38300
O897        O  0.42493182  0.61011128  0.40843753    -0.39000
O898        O  0.45308725  0.60494324  0.37117766    -0.39000
C899        C  0.43344880  0.99635379  0.02743487    -0.11300
C900        C  0.45544289  0.99238353  0.04741300     0.05700
C901        C  0.47805624  0.51217282  0.18559818    -0.06600
C902        C  0.45394973  0.51464609  0.19645590    -0.07400
C903        C  0.40749223  0.99336390  0.08474731    -0.01900
C904        C  0.41012146  0.99698499  0.04530673     0.04900
N905        N  0.39029559  0.00269192  0.02253215     0.67400
H906        H  0.43488954  0.00060455  0.99755435     0.16300
H907        H  0.45290579  0.51812268  0.22561756     0.16000
N908        N  0.49735035  0.51228146  0.21507837     0.75100
O909        O  0.39838019  0.02885494  0.01181074    -0.38300
O910        O  0.37048803  0.98221248  0.00393544    -0.38300
O911        O  0.51567646  0.53646156  0.22854088    -0.39000
O912        O  0.46501245  0.95840687  0.12335882    -0.39000
O913        O  0.34987597  0.98759993  0.77969726    -0.56900
C914        C  0.37560979  0.54548928  0.69774865     0.75800
O915        O  0.36556917  0.49596392  0.58350888    -0.58000
C916        C  0.32876770  0.96705993  0.76243929     0.75700
C917        C  0.28866510  0.49230402  0.67247775     0.78100
Cd918      Cd  0.34563311  0.49835245  0.65006668     1.37500
O919        O  0.36810627  0.51932890  0.70792600    -0.56900
O920        O  0.30996567  0.00669296  0.70325933    -0.55700
C921        C  0.41439826  0.02576695  0.68359543     0.78100
O922        O  0.33674758  0.05251275  0.71249418    -0.58100
O923        O  0.37037609  0.55052246  0.66387908    -0.56500
O924        O  0.32575936  0.97199574  0.72789440    -0.56500
O925        O  0.39539815  0.51024451  0.63023836    -0.55700
O926        O  0.01791490  0.62496706  0.81054504    -0.56900
C927        C  0.45642855  0.62172074  0.80296811     0.75800
O928        O  0.48474566  0.60231522  0.90408056    -0.58000
C929        C  0.04370095  0.64498240  0.80266900     0.75700
C930        C  0.51073296  0.70338114  0.85905817     0.78100
Cd931      Cd  0.50445165  0.64580259  0.85685237     1.37500
O932        O  0.48262913  0.63022747  0.79471730    -0.56900
O933        O  0.48859237  0.68183057  0.87452723    -0.55700
C934        C  0.02468854  0.60240011  0.91965763     0.78100
O935        O  0.53115537  0.69882221  0.85118682    -0.58100
O936        O  0.45198146  0.62385443  0.83667323    -0.56500
O937        O  0.05755776  0.66361927  0.82725185    -0.56500
O938        O  0.53136976  0.62645471  0.89916366    -0.55700
O939        O  0.45923046  0.83804151  0.80244335    -0.56900
C940        C  0.06083058  0.87857519  0.81945716     0.75800
O941        O  0.49902076  0.81845531  0.81520578    -0.58000
C942        C  0.44625918  0.81963188  0.77708761     0.75700
C943        C  0.50826786  0.90734700  0.72680658     0.78100
Cd944      Cd  0.50672209  0.85905724  0.77602763     1.37500
O945        O  0.03692134  0.87478966  0.83236629    -0.56900
O946        O  0.49852640  0.90157162  0.75975334    -0.55700
C947        C  0.51002649  0.80752333  0.79543261     0.78100
O948        O  0.51837093  0.89143074  0.71646139    -0.58100
O949        O  0.06047318  0.87290370  0.78555740    -0.56500
O950        O  0.46157132  0.82096054  0.75002270    -0.56500
O951        O  0.51966780  0.82042294  0.76343746    -0.55700
O952        O  0.09655392  0.63082094  0.65745682    -0.56900
C953        C  0.15392625  0.62674177  0.66870379     0.75800
O954        O  0.11016649  0.60569809  0.57328390    -0.58000
C955        C  0.09566079  0.65374549  0.66282478     0.75700
C956        C  0.18636594  0.70905683  0.60367760     0.78100
Cd957      Cd  0.13291355  0.65131191  0.61086909     1.37500
O958        O  0.14214418  0.64173292  0.67454675    -0.56900
O959        O  0.18752036  0.68595411  0.59975085    -0.55700
C960        C  0.08733280  0.60676947  0.56243536     0.78100
O961        O  0.16064221  0.70567138  0.60195201    -0.58100
O962        O  0.15745991  0.62381421  0.63488158    -0.56500
O963        O  0.11058865  0.67602779  0.64137601    -0.56500
O964        O  0.08865964  0.63103578  0.56704459    -0.55700
O965        O  0.14462275  0.52657505  0.76158668    -0.56900
C966        C  0.15298673  0.95223651  0.86192923     0.75800
O967        O  0.20293257  0.51701257  0.77888368    -0.58000
C968        C  0.16587962  0.55009078  0.77338957     0.75700
C969        C  0.09738399  0.99613518  0.82628918     0.78100
Cd970      Cd  0.15105203  0.49452476  0.80388989     1.37500
O971        O  0.14895438  0.95641501  0.82743191    -0.56900
O972        O  0.13460346  0.48940485  0.87514659    -0.55700
C973        C  0.20306999  0.49348025  0.77419391     0.78100
O974        O  0.10543390  0.48928519  0.83171395    -0.58100
O975        O  0.16322756  0.97423670  0.88187231    -0.56500
O976        O  0.18090314  0.54850074  0.80152341    -0.56500
O977        O  0.18240659  0.47091824  0.79074841    -0.55700
C978        C  0.51820223  0.01314862  0.63844105    -0.01500
C979        C  0.98659428  0.99810732  0.85914644    -0.01500
O980        O  0.29608401  0.86611775  0.74044473    -0.56900
C981        C  0.33881785  0.79793065  0.76141429     0.75800
O982        O  0.36751762  0.89217869  0.73866250    -0.58000
C983        C  0.28681886  0.85918356  0.77357984     0.75700
C984        C  0.27969420  0.80614379  0.68261344     0.78100
Cd985      Cd  0.32097533  0.83929797  0.74304101     1.37500
O986        O  0.34516909  0.81325438  0.73090268    -0.56900
O987        O  0.30606000  0.82601495  0.67504475    -0.55700
C988        C  0.37690836  0.89071630  0.77196151     0.78100
O989        O  0.27280779  0.80283414  0.71661406    -0.58100
O990        O  0.32109053  0.79951149  0.78267460    -0.56500
O991        O  0.29043194  0.83965177  0.79192982    -0.56500
O992        O  0.36174011  0.86630144  0.78942671    -0.55700
C993        C  0.41873942  0.90840461  0.81982249    -0.11300
C994        C  0.40375248  0.91541216  0.79101196     0.05700
C995        C  0.41487407  0.94551127  0.78214904    -0.06600
C996        C  0.43836207  0.96709130  0.80338027    -0.07400
C997        C  0.45270796  0.96069797  0.83455505    -0.01900
C998        C  0.44370052  0.93000281  0.83940812     0.04900
N999        N  0.46193256  0.91997050  0.85818092     0.67400
H1000       H  0.41242854  0.88557143  0.82535938     0.16300
H1001       H  0.44607792  0.98921221  0.79275868     0.16000
N1002       N  0.40328730  0.95511945  0.75099989     0.75100
O1003       O  0.45115031  0.90113269  0.88486185    -0.38300
O1004       O  0.48139707  0.91970668  0.83927786    -0.38300
O1005       O  0.38719726  0.96577694  0.75698828    -0.39000
O1006       O  0.41646756  0.96180023  0.72046681    -0.39000
C1007       C  0.49553951  0.98199800  0.58006813    -0.11300
C1008       C  0.51893069  0.00804769  0.59512898     0.05700
C1009       C  0.98521831  0.52662691  0.44429647    -0.06600
C1010       C  0.04610346  0.50971311  0.03004420    -0.07400
C1011       C  0.98277925  0.00020405  0.90250330    -0.01900
C1012       C  0.45347296  0.96894873  0.92443620     0.04900
N1013       N  0.42661086  0.94586587  0.90947050     0.67400
H1014       H  0.47723666  0.96749488  0.59772820     0.16300
H1015       H  0.06506349  0.52474733  0.01370405     0.16000
N1016       N  0.99886063  0.55645423  0.45365985     0.75100
O1017       O  0.41813476  0.91959206  0.91991480    -0.38300
O1018       O  0.40887584  0.95186104  0.89137503    -0.38300
O1019       O  0.08777696  0.03738041  0.59584633    -0.39000
O1020       O  0.98561932  0.57014413  0.44273338    -0.39000
C1021       C  0.05817301  0.98897568  0.86904850    -0.11300
C1022       C  0.06764242  0.99352698  0.83237963     0.05700
C1023       C  0.06512516  0.49326190  0.88104909    -0.06600
C1024       C  0.04539153  0.49343407  0.90576586    -0.07400
C1025       C  0.01541913  0.99594764  0.85210873    -0.01900
C1026       C  0.03303293  0.98990186  0.87902230     0.04900
N1027       N  0.02812111  0.98661746  0.91759753     0.67400
H1028       H  0.07115622  0.98564975  0.89129814     0.16300
H1029       H  0.02791768  0.49678423  0.89346573     0.16000
N1030       N  0.06022002  0.49765257  0.84223467     0.75100
O1031       O  0.04694669  0.00768254  0.93610510    -0.38300
O1032       O  0.01616096  0.96108319  0.93271016    -0.38300
O1033       O  0.03952555  0.47666738  0.82524215    -0.39000
O1034       O  0.06933021  0.52348948  0.82912348    -0.39000
C1035       C  0.20739309  0.75849848  0.62985475    -0.11300
C1036       C  0.21271763  0.73767446  0.61482407     0.05700
C1037       C  0.24202025  0.74277301  0.61754724    -0.06600
C1038       C  0.26424752  0.76699580  0.63663536    -0.07400
C1039       C  0.25802396  0.78611398  0.65441887    -0.01900
C1040       C  0.22927159  0.78196526  0.64997206     0.04900
N1041       N  0.22140075  0.80077120  0.66674905     0.67400
H1042       H  0.18537141  0.75547552  0.62844650     0.16300
H1043       H  0.28605343  0.76955885  0.63990425     0.16000
N1044       N  0.24950985  0.72287337  0.60308943     0.75100
O1045       O  0.22045977  0.82088817  0.64669029    -0.38300
O1046       O  0.20724027  0.79197844  0.69662702    -0.38300
O1047       O  0.26088983  0.72873454  0.57135818    -0.39000
O1048       O  0.25295398  0.70527185  0.62549434    -0.39000
C1049       C  0.02851058  0.52781682  0.53944674    -0.11300
C1050       C  0.00339864  0.52991328  0.52775261     0.05700
C1051       C  0.00646633  0.55836082  0.53235021    -0.06600
C1052       C  0.03430782  0.58286297  0.54046260    -0.07400
C1053       C  0.05959266  0.58055863  0.54818393    -0.01900
C1054       C  0.05594930  0.55212812  0.54857861     0.04900
N1055       N  0.07920222  0.54668569  0.56076715     0.67400
H1056       H  0.02722211  0.50691410  0.54402091     0.16300
H1057       H  0.03555223  0.60377407  0.54324590     0.16000
N1058       N  0.98172252  0.56276944  0.53439021     0.75100
O1059       O  0.07962652  0.53769298  0.59415654    -0.38300
O1060       O  0.09269025  0.54188171  0.53666303    -0.38300
O1061       O  0.97251610  0.56196551  0.56641819    -0.39000
O1062       O  0.97799768  0.57859064  0.50932741    -0.39000
C1063       C  0.18367152  0.60529291  0.69521191    -0.11300
C1064       C  0.16193162  0.61259441  0.70000066     0.05700
C1065       C  0.14652369  0.60431761  0.73382068    -0.06600
C1066       C  0.15151179  0.58690509  0.76077275    -0.07400
C1067       C  0.17144410  0.57750852  0.75444433    -0.01900
C1068       C  0.18852930  0.58776596  0.72214156     0.04900
N1069       N  0.20887938  0.57841437  0.71449173     0.67400
H1070       H  0.19586937  0.61190260  0.66959092     0.16300
H1071       H  0.13762085  0.57825761  0.78498085     0.16000
N1072       N  0.12326725  0.61028049  0.73923861     0.75100
O1073       O  0.20061793  0.55721971  0.69364438    -0.38300
O1074       O  0.23606708  0.59623663  0.71843078    -0.38300
O1075       O  0.09793726  0.59391735  0.72548292    -0.39000
O1076       O  0.12907318  0.63414498  0.75262364    -0.39000
C1077       C  0.36790453  0.77640120  0.74424620    -0.11300
C1078       C  0.35533952  0.78292627  0.77298552     0.05700
C1079       C  0.36972940  0.78870369  0.80825960    -0.06600
C1080       C  0.39958025  0.79741230  0.81052648    -0.07400
C1081       C  0.41439642  0.79889250  0.77844211    -0.01900
C1082       C  0.39765145  0.78446746  0.74665630     0.04900
N1083       N  0.41082163  0.78065905  0.71529161     0.67400
H1084       H  0.35628524  0.76987802  0.71761694     0.16300
H1085       H  0.41169198  0.80603184  0.83636272     0.16000
N1086       N  0.35626225  0.79115925  0.84025872     0.75100
O1087       O  0.40776976  0.75575735  0.71088297    -0.38300
O1088       O  0.41838414  0.79910997  0.68797074    -0.38300
O1089       O  0.34700984  0.77061158  0.86506101    -0.39000
O1090       O  0.36143777  0.81616176  0.84867521    -0.39000
C1091       C  0.08885207  0.89785803  0.87897594    -0.11300
C1092       C  0.08785239  0.88863423  0.84286512     0.05700
C1093       C  0.11310460  0.88854856  0.83065103    -0.06600
C1094       C  0.13973130  0.90333655  0.85087759    -0.07400
C1095       C  0.14174989  0.92217021  0.87785507    -0.01900
C1096       C  0.11601744  0.91239209  0.89807073     0.04900
N1097       N  0.11731675  0.91966646  0.93591308     0.67400
H1098       H  0.06912390  0.89444044  0.89187278     0.16300
H1099       H  0.15965870  0.90651948  0.83878484     0.16000
N1100       N  0.11268194  0.87505124  0.79739413     0.75100
O1101       O  0.11497734  0.94148016  0.94301441    -0.38300
O1102       O  0.11275994  0.90028644  0.96142999    -0.38300
O1103       O  0.12331837  0.89086040  0.76808821    -0.39000
O1104       O  0.10998201  0.84989990  0.80024152    -0.39000
C1105       C  0.49149368  0.96703221  0.68486045    -0.11300
C1106       C  0.51442680  0.98352968  0.65933831     0.05700
C1107       C  0.02798856  0.95734895  0.65296964    -0.06600
C1108       C  0.02600402  0.93293864  0.67466621    -0.07400
C1109       C  0.50852026  0.93194251  0.70218147    -0.01900
C1110       C  0.48881704  0.94240598  0.70622845     0.04900
N1111       N  0.46563491  0.92842773  0.73219078     0.67400
H1112       H  0.47501640  0.97288155  0.68930935     0.16300
H1113       H  0.04159953  0.92577504  0.67004882     0.16000
N1114       N  0.04896504  0.96868760  0.62373846     0.75100
O1115       O  0.46984295  0.93895777  0.76381415    -0.38300
O1116       O  0.43958164  0.91279352  0.72012963    -0.38300
O1117       O  0.58139562  0.99397326  0.63658007    -0.39000
O1118       O  0.04072982  0.95678400  0.59274706    -0.39000
C1119       C  0.04251905  0.74465535  0.83019985    -0.11300
C1120       C  0.51189779  0.73130188  0.84571751     0.05700
C1121       C  0.49541109  0.74230595  0.86092976    -0.06600
C1122       C  0.49523970  0.76684634  0.84365012    -0.07400
C1123       C  0.51096892  0.78102164  0.81087723    -0.01900
C1124       C  0.03979005  0.76710665  0.81036426     0.04900
N1125       N  0.05436236  0.77815864  0.77563776     0.67400
H1126       H  0.05544225  0.73662172  0.81809146     0.16300
H1127       H  0.48243008  0.77477110  0.85628245     0.16000
N1128       N  0.47944347  0.72970072  0.89447781     0.75100
O1129       O  0.08187799  0.79501795  0.77614735    -0.38300
O1130       O  0.04228488  0.76377486  0.74696238    -0.38300
O1131       O  0.49069811  0.74220776  0.92461728    -0.39000
O1132       O  0.45190451  0.71308810  0.89211244    -0.39000
C1133       C  0.05503602  0.62795217  0.70603794    -0.11300
C1134       C  0.07998111  0.65413880  0.69500771     0.05700
C1135       C  0.09286919  0.67756530  0.71909224    -0.06600
C1136       C  0.08099969  0.67405264  0.75432887    -0.07400
C1137       C  0.05631600  0.64737229  0.76592395    -0.01900
C1138       C  0.04321024  0.62422084  0.74106271     0.04900
N1139       N  0.01900680  0.59609047  0.75135252     0.67400
H1140       H  0.04543279  0.60958558  0.68794367     0.16300
H1141       H  0.09129504  0.69218671  0.77274380     0.16000
N1142       N  0.11921400  0.70410400  0.70920304     0.75100
O1143       O  0.99366378  0.58930692  0.73838657    -0.38300
O1144       O  0.02422740  0.57585956  0.76227320    -0.38300
O1145       O  0.11744963  0.72357032  0.68866125    -0.39000
O1146       O  0.14375226  0.70519988  0.71378041    -0.39000
C1147       C  0.48668430  0.55499280  0.94831256    -0.11300
C1148       C  0.02635303  0.57643933  0.93715086     0.05700
C1149       C  0.04986551  0.57151153  0.93138260    -0.06600
C1150       C  0.04793747  0.54453978  0.94245578    -0.07400
C1151       C  0.02242904  0.52044755  0.95850136    -0.01900
C1152       C  0.48651341  0.52918630  0.96227443     0.04900
N1153       N  0.46157403  0.50869375  0.98346828     0.67400
H1154       H  0.46719550  0.55673546  0.95132536     0.16300
H1155       H  0.06738474  0.54313688  0.93823270     0.16000
N1156       N  0.07610528  0.59341709  0.91372531     0.75100
O1157       O  0.46204046  0.51291512  0.01772698    -0.38300
O1158       O  0.43681479  0.49573772  0.96681228    -0.38300
O1159       O  0.09876347  0.60806454  0.93379016    -0.39000
O1160       O  0.07907991  0.59167491  0.87952375    -0.39000
C1161       C  0.24504416  0.51825235  0.72782585    -0.11300
C1162       C  0.22505352  0.49264357  0.74852962     0.05700
C1163       C  0.22461154  0.46635956  0.74100351    -0.06600
C1164       C  0.24454105  0.46644964  0.71560314    -0.07400
C1165       C  0.26484961  0.49217826  0.69541341    -0.01900
C1166       C  0.26429371  0.51814461  0.70154547     0.04900
N1167       N  0.28355016  0.54491034  0.68159369     0.67400
H1168       H  0.24553122  0.53867980  0.73160209     0.16300
H1169       H  0.30781871  0.07052631  0.74931663     0.16000
N1170       N  0.20346323  0.43906571  0.75820821     0.75100
O1171       O  0.27694285  0.54933096  0.64840216    -0.38300
O1172       O  0.25663831  0.99785564  0.64716041    -0.38300
O1173       O  0.17800216  0.42495863  0.74364839    -0.39000
O1174       O  0.25934510  0.09141480  0.77560168    -0.39000
C1175       C  0.28115332  0.92156947  0.76192491    -0.11300
C1176       C  0.30828454  0.93838911  0.78034890     0.05700
C1177       C  0.31573663  0.92548841  0.81174681    -0.06600
C1178       C  0.29934994  0.89499535  0.81817448    -0.07400
C1179       C  0.27830539  0.87787784  0.79136246    -0.01900
C1180       C  0.26555649  0.89125542  0.76802857     0.04900
N1181       N  0.24034614  0.87436513  0.74483763     0.67400
H1182       H  0.27348750  0.93148712  0.73999884     0.16300
H1183       H  0.30790629  0.88481480  0.83852801     0.16000
N1184       N  0.34163311  0.94180096  0.83413602     0.75100
O1185       O  0.21566767  0.86995712  0.75459397    -0.38300
O1186       O  0.24390326  0.87212152  0.71099084    -0.38300
O1187       O  0.33895732  0.94941495  0.86557376    -0.39000
O1188       O  0.36404479  0.93976425  0.82866024    -0.39000
C1189       C  0.40593917  0.58341868  0.78784700    -0.11300
C1190       C  0.43221446  0.60757612  0.77539849     0.05700
C1191       C  0.43621066  0.61438416  0.73658685    -0.06600
C1192       C  0.41558940  0.59507902  0.71124671    -0.07400
C1193       C  0.39141180  0.56886813  0.72400017    -0.01900
C1194       C  0.38565559  0.56385380  0.76257316     0.04900
N1195       N  0.36011755  0.53836605  0.77682954     0.67400
H1196       H  0.40223314  0.57822609  0.81749032     0.16300
H1197       H  0.41976933  0.59954652  0.68161022     0.16000
N1198       N  0.46123293  0.64034523  0.72227892     0.75100
O1199       O  0.36223361  0.51638163  0.78850867    -0.38300
O1200       O  0.33924709  0.54106571  0.78795330    -0.38300
O1201       O  0.48105327  0.63808914  0.70702248    -0.39000
O1202       O  0.45888076  0.66276649  0.71437442    -0.39000
C1203       C  0.46853403  0.01502272  0.62269350    -0.11300
C1204       C  0.49135913  0.01834293  0.64859560     0.05700
C1205       C  0.46380801  0.50339447  0.58362101    -0.06600
C1206       C  0.43951610  0.50356964  0.59835675    -0.07400
C1207       C  0.44088375  0.02481102  0.66850576    -0.01900
C1208       C  0.44381313  0.01771752  0.63203630     0.04900
N1209       N  0.42212561  0.01310664  0.60355448     0.67400
H1210       H  0.46920233  0.00985621  0.59460817     0.16300
H1211       H  0.43886836  0.50387330  0.62843181     0.16000
N1212       N  0.48550937  0.50409815  0.61016805     0.75100
O1213       O  0.42715925  0.03380709  0.57991042    -0.38300
O1214       O  0.40407368  0.98716702  0.59500012    -0.38300
O1215       O  0.50246537  0.52793125  0.62544216    -0.39000
O1216       O  0.49910124  0.01454974  0.74258203    -0.39000
O1217       O  0.84903927  0.48126429  0.27900815    -0.56900
C1218       C  0.88072054  0.05119047  0.21236515     0.75800
O1219       O  0.86352142  0.01029194  0.09519986    -0.58000
C1220       C  0.82801012  0.46012853  0.26240622     0.75700
C1221       C  0.79079531  0.00549269  0.19076242     0.78100
Cd1222     Cd  0.84422846  0.00647408  0.16483641     1.37500
O1223       O  0.87023552  0.02415026  0.22020052    -0.56900
O1224       O  0.81407530  0.49584948  0.19671406    -0.55700
C1225       C  0.91749160  0.51307865  0.18462678     0.78100
O1226       O  0.83930578  0.54199869  0.20455930    -0.58100
O1227       O  0.87566893  0.05880773  0.17966203    -0.56500
O1228       O  0.82647224  0.46336323  0.22717977    -0.56500
O1229       O  0.88785671  0.00661977  0.14252791    -0.55700
O1230       O  0.50643687  0.12730397  0.30779279    -0.56900
C1231       C  0.96246653  0.11271267  0.32645523     0.75800
O1232       O  0.99703038  0.10041342  0.42043619    -0.58000
C1233       C  0.53201269  0.14885297  0.30304349     0.75700
C1234       C  0.01663485  0.19917807  0.37239692     0.78100
Cd1235     Cd  0.01377902  0.14255128  0.37200784     1.37500
O1236       O  0.98821841  0.12145910  0.31581773    -0.56900
O1237       O  0.99288844  0.17579894  0.38012167    -0.55700
C1238       C  0.51299139  0.09975329  0.42160817     0.78100
O1239       O  0.03949293  0.19680447  0.37433997    -0.58100
O1240       O  0.95948512  0.11586257  0.36035995    -0.56500
O1241       O  0.54397742  0.16514905  0.33048211    -0.56500
O1242       O  0.04169049  0.12001400  0.40419777    -0.55700
O1243       O  0.96100472  0.32805958  0.31834897    -0.56900
C1244       C  0.55520425  0.36526372  0.28247662     0.75800
O1245       O  0.99138743  0.29490763  0.27729662    -0.58000
C1246       C  0.94372868  0.30715565  0.29782732     0.75700
C1247       C  0.00489324  0.39149953  0.22210414     0.78100
Cd1248     Cd  0.00327003  0.34631302  0.27979459     1.37500
O1249       O  0.53598891  0.36783202  0.29964820    -0.56900
O1250       O  0.98910976  0.38266902  0.25065112    -0.55700
C1251       C  0.01563683  0.29837836  0.29092495     0.78100
O1252       O  0.01995880  0.37898731  0.21850898    -0.58100
O1253       O  0.54842515  0.35550711  0.24980231    -0.56500
O1254       O  0.95401297  0.30518080  0.26767092    -0.56500
O1255       O  0.03687310  0.32456831  0.29023216    -0.55700
O1256       O  0.60624067  0.14294064  0.18376761    -0.56900
C1257       C  0.65970353  0.13166153  0.17801803     0.75800
O1258       O  0.60548084  0.10053941  0.10855552    -0.58000
C1259       C  0.59570696  0.15954165  0.17545866     0.75700
C1260       C  0.68543355  0.20721693  0.12364311     0.78100
Cd1261     Cd  0.63133657  0.15186090  0.12743683     1.37500
O1262       O  0.64096935  0.13797180  0.18844383    -0.56900
O1263       O  0.68474157  0.18463071  0.11245120    -0.55700
C1264       C  0.58720916  0.10185929  0.08538126     0.78100
O1265       O  0.66060066  0.20560125  0.12546654    -0.58100
O1266       O  0.66464569  0.13418726  0.14337657    -0.56500
O1267       O  0.60117898  0.17296480  0.14367879    -0.56500
O1268       O  0.59186128  0.12761012  0.07681355    -0.55700
O1269       O  0.65211306  0.03028089  0.26881426    -0.56900
C1270       C  0.65156849  0.44078917  0.32243925     0.75800
O1271       O  0.67969102  0.97510733  0.30197595    -0.58000
C1272       C  0.67135004  0.05487600  0.28023438     0.75700
C1273       C  0.60075213  0.49030657  0.31023256     0.78100
Cd1274     Cd  0.65286274  0.00087895  0.32099898     1.37500
O1275       O  0.64614561  0.45009206  0.29126766    -0.56900
O1276       O  0.60558516  0.99212420  0.34608782    -0.55700
C1277       C  0.70457056  0.99817865  0.29783994     0.78100
O1278       O  0.63623278  0.99890832  0.39077171    -0.58100
O1279       O  0.66369676  0.45906229  0.34780022    -0.56500
O1280       O  0.68153924  0.05553140  0.31326113    -0.56500
O1281       O  0.70723330  0.02029083  0.31353203    -0.55700
C1282       C  0.01991156  0.49983252  0.13598125    -0.01500
C1283       C  0.49203922  0.48992243  0.35760332    -0.01500
O1284       O  0.80026523  0.35544121  0.26059036    -0.56900
C1285       C  0.83821624  0.28577357  0.30135912     0.75800
O1286       O  0.86838935  0.37745643  0.25454253    -0.58000
C1287       C  0.79067225  0.35296336  0.29299565     0.75700
C1288       C  0.78117581  0.29283328  0.21406542     0.78100
Cd1289     Cd  0.82307623  0.32743020  0.27229124     1.37500
O1290       O  0.84269146  0.29630803  0.26795990    -0.56900
O1291       O  0.77430322  0.29101008  0.24784354    -0.55700
C1292       C  0.88054072  0.38143343  0.28702161     0.78100
O1293       O  0.80806093  0.31068175  0.20632576    -0.58100
O1294       O  0.82323447  0.29218540  0.32151509    -0.56500
O1295       O  0.79428162  0.33608932  0.31709544    -0.56500
O1296       O  0.86759416  0.36017167  0.31047794    -0.55700
C1297       C  0.92625892  0.40871931  0.32762669    -0.11300
C1298       C  0.90757125  0.40948714  0.29852380     0.05700
C1299       C  0.91415938  0.43726996  0.28298357    -0.06600
C1300       C  0.93723190  0.46309931  0.29794059    -0.07400
C1301       C  0.95438805  0.46312248  0.32995615    -0.01900
C1302       C  0.94984338  0.43455366  0.34250278     0.04900
N1303       N  0.96977883  0.43085100  0.36827528     0.67400
H1304       H  0.92277019  0.38765265  0.33887109     0.16300
H1305       H  0.94114511  0.48323665  0.28356899     0.16000
N1306       N  0.89655809  0.44003817  0.25310017     0.75100
O1307       O  0.96273523  0.42364288  0.40195023    -0.38300
O1308       O  0.98716145  0.42378433  0.35546040    -0.38300
O1309       O  0.87690903  0.44587014  0.26048957    -0.39000
O1310       O  0.90580293  0.44481658  0.22023937    -0.39000
C1311       C  0.99786032  0.47383031  0.07348830    -0.11300
C1312       C  0.02188814  0.49746052  0.09178749     0.05700
C1313       C  0.50327607  0.01616200  0.95757244    -0.06600
C1314       C  0.54178094  0.01682570  0.53335177    -0.07400
C1315       C  0.49031141  0.49158599  0.40160452    -0.01900
C1316       C  0.94824996  0.47251156  0.41339106     0.04900
N1317       N  0.92277981  0.44786611  0.39823572     0.67400
H1318       H  0.97858672  0.45911588  0.08953609     0.16300
H1319       H  0.55991191  0.03140630  0.51551085     0.16000
N1320       N  0.53115921  0.03933879  0.97011373     0.75100
O1321       O  0.91196167  0.42296494  0.41501336    -0.38300
O1322       O  0.90706512  0.45240725  0.37408251    -0.38300
O1323       O  0.58241169  0.55013850  0.08599203    -0.39000
O1324       O  0.53704173  0.06539122  0.96257969    -0.39000
C1325       C  0.56317301  0.48048248  0.35699167    -0.11300
C1326       C  0.57166709  0.48768340  0.31979959     0.05700
C1327       C  0.56243325  0.99405026  0.39134393    -0.06600
C1328       C  0.54132651  0.99310757  0.41444383    -0.07400
C1329       C  0.52033441  0.48818383  0.34672287    -0.01900
C1330       C  0.53905633  0.48153604  0.37069578     0.04900
N1331       N  0.53701956  0.47877205  0.40984041     0.67400
H1332       H  0.57679117  0.47595414  0.37696366     0.16300
H1333       H  0.52280152  0.99389588  0.40074387     0.16000
N1334       N  0.55737299  0.99587372  0.35203847     0.75100
O1335       O  0.55759246  0.49977557  0.42680159    -0.38300
O1336       O  0.52531895  0.45337695  0.42535388    -0.38300
O1337       O  0.53809751  0.97313884  0.33637562    -0.39000
O1338       O  0.56452515  0.02063742  0.33647548    -0.39000
C1339       C  0.70946679  0.25360974  0.15695393    -0.11300
C1340       C  0.71279984  0.23261172  0.13918600     0.05700
C1341       C  0.74031711  0.23354078  0.14385222    -0.06600
C1342       C  0.76309772  0.25480709  0.16603284    -0.07400
C1343       C  0.75867332  0.27427058  0.18579274    -0.01900
C1344       C  0.73136857  0.27339573  0.18089424     0.04900
N1345       N  0.72498534  0.29222008  0.20013938     0.67400
H1346       H  0.68870116  0.25342159  0.15459474     0.16300
H1347       H  0.78362174  0.25462456  0.17001584     0.16000
N1348       N  0.74489863  0.21171004  0.12918978     0.75100
O1349       O  0.72246359  0.31183280  0.18103862    -0.38300
O1350       O  0.71170747  0.28278635  0.23062789    -0.38300
O1351       O  0.76107056  0.21848145  0.10130028    -0.39000
O1352       O  0.74037221  0.18958633  0.14986682    -0.39000
C1353       C  0.52943491  0.02127195  0.07078390    -0.11300
C1354       C  0.50972822  0.02288854  0.04388531     0.05700
C1355       C  0.51322324  0.05156043  0.03731525    -0.06600
C1356       C  0.53919945  0.07669854  0.04908145    -0.07400
C1357       C  0.56110477  0.07458388  0.07093610    -0.01900
C1358       C  0.55510780  0.04608202  0.08323681     0.04900
N1359       N  0.57381706  0.04157469  0.11005204     0.67400
H1360       H  0.52410575  0.00041775  0.08435561     0.16300
H1361       H  0.54138782  0.09805109  0.04264246     0.16000
N1362       N  0.48955816  0.05573191  0.02300526     0.75100
O1363       O  0.56532920  0.03335153  0.14315134    -0.38300
O1364       O  0.59448931  0.03859714  0.09883209    -0.38300
O1365       O  0.47395201  0.05837966  0.04626462    -0.39000
O1366       O  0.49088346  0.06676156  0.99039189    -0.39000
C1367       C  0.67990273  0.09928557  0.19203877    -0.11300
C1368       C  0.67322774  0.11960173  0.20471296     0.05700
C1369       C  0.67434077  0.12372303  0.24325980    -0.06600
C1370       C  0.67757742  0.10420434  0.26873973    -0.07400
C1371       C  0.67976622  0.08095356  0.25572061    -0.01900
C1372       C  0.68294081  0.07975319  0.21714459     0.04900
N1373       N  0.68664864  0.05730741  0.20254215     0.67400
H1374       H  0.67975497  0.09643380  0.16239135     0.16300
H1375       H  0.67563670  0.10559195  0.29832755     0.16000
N1376       N  0.67014042  0.14628382  0.25656719     0.75100
O1377       O  0.66444438  0.03550890  0.18887419    -0.38300
O1378       O  0.71189944  0.06385745  0.19218250    -0.38300
O1379       O  0.64601584  0.13958271  0.27093246    -0.39000
O1380       O  0.68780860  0.17274674  0.24726685    -0.39000
C1381       C  0.86157007  0.25780347  0.28901129    -0.11300
C1382       C  0.85401816  0.27068353  0.31609895     0.05700
C1383       C  0.87399516  0.28331346  0.34619921    -0.06600
C1384       C  0.90349820  0.29179779  0.34177584    -0.07400
C1385       C  0.91277162  0.28733469  0.30815543    -0.01900
C1386       C  0.89125234  0.26733460  0.28341839     0.04900
N1387       N  0.89893749  0.25973413  0.25003014     0.67400
H1388       H  0.84570489  0.24609972  0.26704688     0.16300
H1389       H  0.91948417  0.30517476  0.36266227     0.16000
N1390       N  0.86657990  0.29371456  0.37723424     0.75100
O1391       O  0.89635328  0.23471030  0.24881478    -0.38300
O1392       O  0.89959465  0.27371700  0.21979374    -0.38300
O1393       O  0.86401593  0.28066512  0.40877464    -0.39000
O1394       O  0.87163938  0.31979541  0.37571959    -0.39000
C1395       C  0.58805185  0.37925435  0.33842063    -0.11300
C1396       C  0.58416045  0.37364856  0.30024948     0.05700
C1397       C  0.60880211  0.37833530  0.28028956    -0.06600
C1398       C  0.63697106  0.39478556  0.29635708    -0.07400
C1399       C  0.64001430  0.40921486  0.32908890    -0.01900
C1400       C  0.61637448  0.39577903  0.35365825     0.04900
N1401       N  0.61978514  0.40432279  0.39130437     0.67400
H1402       H  0.56930739  0.37300421  0.35567684     0.16300
H1403       H  0.65585912  0.40241976  0.27881350     0.16000
N1404       N  0.60621328  0.36989943  0.24270432     0.75100
O1405       O  0.61441478  0.42415754  0.39888745    -0.38300
O1406       O  0.61984160  0.38696847  0.41724335    -0.38300
O1407       O  0.61111871  0.38873537  0.21632955    -0.39000
O1408       O  0.60747802  0.34729132  0.23664452    -0.39000
C1409       C  0.98807716  0.44894403  0.17223692    -0.11300
C1410       C  0.01464012  0.46882868  0.15399611     0.05700
C1411       C  0.52465039  0.46234372  0.14290170    -0.06600
C1412       C  0.52182372  0.43639027  0.16164635    -0.07400
C1413       C  0.00635881  0.41597021  0.19579901    -0.01900
C1414       C  0.98425471  0.42392629  0.19371370     0.04900
N1415       N  0.95730490  0.40683814  0.21300316     0.67400
H1416       H  0.96960842  0.45264891  0.17098352     0.16300
H1417       H  0.53605063  0.42829506  0.15399591     0.16000
N1418       N  0.54427516  0.47388971  0.11218783     0.75100
O1419       O  0.95493719  0.41469401  0.24441196    -0.38300
O1420       O  0.93421870  0.39060072  0.19451592    -0.38300
O1421       O  0.08451718  0.48303017  0.14088720    -0.39000
O1422       O  0.53431452  0.46277565  0.08100177    -0.39000
C1423       C  0.52596456  0.24231085  0.33036755    -0.11300
C1424       C  0.01749044  0.22670363  0.35661803     0.05700
C1425       C  0.99257995  0.23045262  0.35493015    -0.06600
C1426       C  0.99258387  0.25326733  0.33226541    -0.07400
C1427       C  0.01720310  0.27348854  0.31145324    -0.01900
C1428       C  0.52552899  0.26512804  0.30828703     0.04900
N1429       N  0.55201071  0.28687448  0.29090171     0.67400
H1430       H  0.54627113  0.24160827  0.33246460     0.16300
H1431       H  0.97319986  0.25562111  0.33180906     0.16000
N1432       N  0.96734874  0.21207126  0.37690685     0.75100
O1433       O  0.57118566  0.30737351  0.31005883    -0.38300
O1434       O  0.55959082  0.28098585  0.26140591    -0.38300
O1435       O  0.96500159  0.22108203  0.40749724    -0.39000
O1436       O  0.94449481  0.19235734  0.36127369    -0.39000
C1437       C  0.54851616  0.14082807  0.20450949    -0.11300
C1438       C  0.57799332  0.16244396  0.20250342     0.05700
C1439       C  0.59178333  0.18142936  0.23173405    -0.06600
C1440       C  0.57626343  0.17733279  0.26408610    -0.07400
C1441       C  0.54694652  0.15438911  0.26733359    -0.01900
C1442       C  0.53272064  0.13669999  0.23639261     0.04900
N1443       N  0.50267661  0.11368649  0.23700115     0.67400
H1444       H  0.53815948  0.12590004  0.18204785     0.16300
H1445       H  0.58746847  0.19147225  0.28705355     0.16000
N1446       N  0.62205151  0.20373901  0.22943850     0.75100
O1447       O  0.48335132  0.11832367  0.22079817    -0.38300
O1448       O  0.49711676  0.08757730  0.24296547    -0.38300
O1449       O  0.62895989  0.22612864  0.20808474    -0.39000
O1450       O  0.64171362  0.19769958  0.24048863    -0.39000
C1451       C  0.99877640  0.05145488  0.45954195    -0.11300
C1452       C  0.51598456  0.07453415  0.43899816     0.05700
C1453       C  0.53983896  0.07038911  0.43212772    -0.06600
C1454       C  0.53953296  0.04440825  0.44446597    -0.07400
C1455       C  0.51507346  0.02015662  0.46208754    -0.01900
C1456       C  0.99773531  0.02515253  0.47282094     0.04900
N1457       N  0.97478183  0.00686133  0.49807100     0.67400
H1458       H  0.98108617  0.05513671  0.46646182     0.16300
H1459       H  0.55946188  0.04399931  0.43990567     0.16000
N1460       N  0.56456079  0.09182847  0.41141634     0.75100
O1461       O  0.97862471  0.01426550  0.53145077    -0.38300
O1462       O  0.94866881  0.99321571  0.48536097    -0.38300
O1463       O  0.58828721  0.10790011  0.42886896    -0.39000
O1464       O  0.56548523  0.08821084  0.37724124    -0.39000
C1465       C  0.72227970  0.97532128  0.25276454    -0.11300
C1466       C  0.72792812  0.99984036  0.27273202     0.05700
C1467       C  0.75406387  0.02657400  0.26410315    -0.06600
C1468       C  0.77335810  0.02827224  0.23657144    -0.07400
C1469       C  0.76765846  0.00373872  0.21650798    -0.01900
C1470       C  0.74158955  0.97701035  0.22531166     0.04900
N1471       N  0.73427307  0.95114074  0.20652658     0.67400
H1472       H  0.70232176  0.95460469  0.25794510     0.16300
H1473       H  0.80879614  0.56454743  0.22427706     0.16000
N1474       N  0.76128380  0.05247655  0.28282135     0.75100
O1475       O  0.74188685  0.93339961  0.22100210    -0.38300
O1476       O  0.75808277  0.46823301  0.15378093    -0.38300
O1477       O  0.77181568  0.05556673  0.31572861    -0.39000
O1478       O  0.75658876  0.58400164  0.24231952    -0.39000
C1479       C  0.78247894  0.41209563  0.26141816    -0.11300
C1480       C  0.80685127  0.43230215  0.28192281     0.05700
C1481       C  0.81190100  0.42336044  0.31822706    -0.06600
C1482       C  0.79830743  0.39334087  0.32835068    -0.07400
C1483       C  0.78036367  0.37291901  0.30217750    -0.01900
C1484       C  0.76805471  0.38247405  0.27255118     0.04900
N1485       N  0.74629489  0.36219532  0.24792127     0.67400
H1486       H  0.77644238  0.41861568  0.23469103     0.16300
H1487       H  0.80649046  0.38635933  0.35299913     0.16000
N1488       N  0.83354331  0.44358274  0.34288957     0.75100
O1489       O  0.71973716  0.35487340  0.25219527    -0.38300
O1490       O  0.75420711  0.36002824  0.21634531    -0.38300
O1491       O  0.82531493  0.45077168  0.37070036    -0.39000
O1492       O  0.85880292  0.44641884  0.34363202    -0.39000
C1493       C  0.94349649  0.11254716  0.26259229    -0.11300
C1494       C  0.93800015  0.10035523  0.29930467     0.05700
C1495       C  0.91089358  0.07520375  0.30756004    -0.06600
C1496       C  0.89095798  0.06136606  0.27849238    -0.07400
C1497       C  0.89794867  0.07170689  0.24124235    -0.01900
C1498       C  0.92370088  0.09843624  0.23343531     0.04900
N1499       N  0.93155545  0.11008348  0.19609030     0.67400
H1500       H  0.96415222  0.13227468  0.25613716     0.16300
H1501       H  0.87091214  0.04093855  0.28483613     0.16000
N1502       N  0.90478880  0.06118338  0.34402497     0.75100
O1503       O  0.92834325  0.13148063  0.18465342    -0.38300
O1504       O  0.94873793  0.10483915  0.17917676    -0.38300
O1505       O  0.88607182  0.06243242  0.36324593    -0.39000
O1506       O  0.91084579  0.04106919  0.35174511    -0.39000
C1507       C  0.97326751  0.50694444  0.12159630    -0.11300
C1508       C  0.99332451  0.50463428  0.14772219     0.05700
C1509       C  0.95573051  0.00587713  0.08751107    -0.06600
C1510       C  0.93242729  0.00630724  0.10446052    -0.07400
C1511       C  0.94379272  0.51151085  0.16999181    -0.01900
C1512       C  0.94923633  0.51032752  0.13193565     0.04900
N1513       N  0.93087303  0.51269815  0.10280540     0.67400
H1514       H  0.97608363  0.50632792  0.09247269     0.16300
H1515       H  0.93206527  0.00439486  0.13469208     0.16000
N1516       N  0.97636180  0.00274397  0.11234683     0.75100
O1517       O  0.93921360  0.53738887  0.08628367    -0.38300
O1518       O  0.91261457  0.48989588  0.08642501    -0.38300
O1519       O  0.99446995  0.02459901  0.13048103    -0.39000
O1520       O  0.99386298  0.48086479  0.23606549    -0.39000
O1521       O  0.83828043  0.46955615  0.72237364    -0.56900
C1522       C  0.87651569  0.05391521  0.77730925     0.75800
O1523       O  0.88151246  0.00166938  0.66770754    -0.58000
C1524       C  0.82070993  0.44574199  0.70748651     0.75700
C1525       C  0.80189932  0.01340338  0.71358398     0.78100
Cd1526     Cd  0.85544097  0.00787097  0.72747784     1.37500
O1527       O  0.87438603  0.02948135  0.78771897    -0.56900
O1528       O  0.81717856  0.52917623  0.68843301    -0.55700
C1529       C  0.88038390  0.50144059  0.60751071     0.78100
O1530       O  0.78807399  0.48391448  0.67912451    -0.58100
O1531       O  0.87198147  0.05787704  0.74284750    -0.56500
O1532       O  0.81216534  0.44704724  0.67397443    -0.56500
O1533       O  0.90677569  0.01597852  0.71760701    -0.55700
O1534       O  0.54857874  0.19412161  0.75786310    -0.56900
C1535       C  0.94630769  0.14853260  0.80964026     0.75800
O1536       O  0.01834566  0.13274790  0.78104556    -0.58000
C1537       C  0.55628443  0.20529764  0.78945079     0.75700
C1538       C  0.98661161  0.19688372  0.69629993     0.78100
Cd1539     Cd  0.99406040  0.16432161  0.76304166     1.37500
O1540       O  0.94358772  0.14451937  0.77488020    -0.56900
O1541       O  0.97923902  0.19777184  0.72891282    -0.55700
C1542       C  0.49649920  0.10211090  0.78937377     0.78100
O1543       O  0.99579237  0.17897187  0.69262517    -0.58100
O1544       O  0.97216984  0.16414221  0.82288223    -0.56500
O1545       O  0.53621544  0.19696861  0.81314563    -0.56500
O1546       O  0.97255113  0.10827234  0.76801309    -0.55700
O1547       O  0.98067976  0.35837562  0.65652814    -0.56900
C1548       C  0.55929345  0.38211506  0.65552989     0.75800
O1549       O  0.95986338  0.29168718  0.59824299    -0.58000
C1550       C  0.95343994  0.33991560  0.65723439     0.75700
C1551       C  0.97843499  0.39072847  0.55243461     0.78100
Cd1552     Cd  0.98851117  0.34702763  0.59751290     1.37500
O1553       O  0.53810255  0.36195011  0.67368620    -0.56900
O1554       O  0.95804095  0.36815168  0.56855633    -0.55700
C1555       C  0.98208205  0.28823104  0.60053227     0.78100
O1556       O  0.00231536  0.39036003  0.55014615    -0.58100
O1557       O  0.55585399  0.38382906  0.62034038    -0.56500
O1558       O  0.94146500  0.32539129  0.62846466    -0.56500
O1559       O  0.00611340  0.31091571  0.59144757    -0.55700
O1560       O  0.63699314  0.16978121  0.80594004    -0.56900
C1561       C  0.65692455  0.12128599  0.83331751     0.75800
O1562       O  0.64692769  0.11643803  0.71679740    -0.58000
C1563       C  0.64541057  0.19422802  0.78830423     0.75700
C1564       C  0.72135481  0.19636717  0.77448785     0.78100
Cd1565     Cd  0.66046853  0.15356143  0.76635926     1.37500
O1566       O  0.63908626  0.13076308  0.82772589    -0.56900
O1567       O  0.71151131  0.16995542  0.78583095    -0.55700
C1568       C  0.62178686  0.11346257  0.70867853     0.78100
O1569       O  0.70507790  0.20122146  0.75114874    -0.58100
O1570       O  0.67311202  0.12414906  0.80664862    -0.56500
O1571       O  0.66007016  0.19925592  0.75907467    -0.56500
O1572       O  0.61613658  0.13090958  0.72384978    -0.55700
O1573       O  0.66606109  0.04524305  0.84364170    -0.56900
C1574       C  0.62340341  0.46189487  0.76631800     0.75800
O1575       O  0.67190324  0.99050242  0.76982918    -0.58000
C1576       C  0.66916114  0.04274091  0.87874728     0.75700
C1577       C  0.60974142  0.50316754  0.87415147     0.78100
Cd1578     Cd  0.65256007  0.99665771  0.83123178     1.37500
O1579       O  0.62511204  0.48669389  0.76158267    -0.56900
O1580       O  0.60976197  0.00447828  0.80438715    -0.55700
C1581       C  0.69897372  0.00797115  0.77704236     0.78100
O1582       O  0.59877162  0.96964355  0.84543155    -0.58100
O1583       O  0.63230953  0.45628864  0.79775625    -0.56500
O1584       O  0.66856173  0.01969324  0.89224189    -0.56500
O1585       O  0.70400142  0.02114673  0.80705062    -0.55700
C1586       C  0.97375557  0.50162930  0.51451415    -0.01500
C1587       C  0.51153422  0.49490424  0.96611107    -0.01500
O1588       O  0.86325517  0.36591278  0.78754823    -0.56900
C1589       C  0.89982601  0.33737292  0.79060880     0.75800
O1590       O  0.91522669  0.36758098  0.88872706    -0.58000
C1591       C  0.84183058  0.36823687  0.79752423     0.75700
C1592       C  0.82068259  0.28719761  0.85436140     0.78100
Cd1593     Cd  0.87026682  0.34513458  0.84725978     1.37500
O1594       O  0.88865267  0.35374721  0.78676852    -0.56900
O1595       O  0.84607049  0.29036222  0.85228094    -0.55700
C1596       C  0.91462993  0.39038913  0.89605995     0.78100
O1597       O  0.81964411  0.30915429  0.86459697    -0.58100
O1598       O  0.89930331  0.32538031  0.82260662    -0.56500
O1599       O  0.83412614  0.36069367  0.83122091    -0.56500
O1600       O  0.89168462  0.39088482  0.88464106    -0.55700
C1601       C  0.96284155  0.41113573  0.93083603    -0.11300
C1602       C  0.94007208  0.41525340  0.91546937     0.05700
C1603       C  0.94409240  0.44378757  0.91531196    -0.06600
C1604       C  0.97021650  0.46693499  0.93003397    -0.07400
C1605       C  0.99232499  0.46279388  0.94906858    -0.01900
C1606       C  0.98853030  0.43391385  0.94688062     0.04900
N1607       N  0.01137010  0.42728813  0.95673654     0.67400
H1608       H  0.96123728  0.38992007  0.92950304     0.16300
H1609       H  0.97290368  0.48839258  0.92488777     0.16000
N1610       N  0.92230912  0.45025684  0.89952760     0.75100
O1611       O  0.00818179  0.41085128  0.98539377    -0.38300
O1612       O  0.02640873  0.42706060  0.93060147    -0.38300
O1613       O  0.90541262  0.45236305  0.92122253    -0.39000
O1614       O  0.92589547  0.46227330  0.86715573    -0.39000
C1615       C  0.94826949  0.47633635  0.45245241    -0.11300
C1616       C  0.96861018  0.50260530  0.47005710     0.05700
C1617       C  0.54319846  0.02476127  0.57049488    -0.06600
C1618       C  0.50031934  0.01277337  0.91848411    -0.07400
C1619       C  0.51136848  0.49337306  0.01055043    -0.01900
C1620       C  0.99754126  0.46812648  0.03510951     0.04900
N1621       N  0.97165161  0.44331833  0.02109976     0.67400
H1622       H  0.93215326  0.45820704  0.46954641     0.16300
H1623       H  0.51874516  0.02852350  0.90186810     0.16000
N1624       N  0.57085597  0.04871264  0.58208395     0.75100
O1625       O  0.96892352  0.41820483  0.02626296    -0.38300
O1626       O  0.94919288  0.44534921  0.01178352    -0.38300
O1627       O  0.56477634  0.54109003  0.47774944    -0.39000
O1628       O  0.57797561  0.07410418  0.56888044    -0.39000
C1629       C  0.58735670  0.49847569  0.93903128    -0.11300
C1630       C  0.58598354  0.50132099  0.89953478     0.05700
C1631       C  0.54361385  0.98686671  0.80411715    -0.06600
C1632       C  0.51781726  0.98687088  0.81369931    -0.07400
C1633       C  0.53953191  0.49719287  0.94644994    -0.01900
C1634       C  0.56470369  0.49597063  0.96239443     0.04900
N1635       N  0.56730100  0.49011047  0.00142835     0.67400
H1636       H  0.60586509  0.49732587  0.95209698     0.16300
H1637       H  0.50369102  0.98903550  0.79084073     0.16000
N1638       N  0.55094608  0.98953224  0.76573094     0.75100
O1639       O  0.58568167  0.51089642  0.02087927    -0.38300
O1640       O  0.56049032  0.46430584  0.01241104    -0.38300
O1641       O  0.56051380  0.97403958  0.75371718    -0.39000
O1642       O  0.54402561  0.00431064  0.74273519    -0.39000
C1643       C  0.76705143  0.21294420  0.81415021    -0.11300
C1644       C  0.74861269  0.22025179  0.79164894     0.05700
C1645       C  0.75359395  0.24916929  0.79206232    -0.06600
C1646       C  0.77589797  0.26946787  0.81498621    -0.07400
C1647       C  0.79432956  0.26227801  0.83742157    -0.01900
C1648       C  0.78992594  0.23363070  0.83652726     0.04900
N1649       N  0.80732324  0.22457070  0.85937968     0.67400
H1650       H  0.76329537  0.19075820  0.81512190     0.16300
H1651       H  0.77943951  0.29158677  0.81410409     0.16000
N1652       N  0.73583906  0.25840951  0.77029881     0.75100
O1653       O  0.79765138  0.21171617  0.89066461    -0.38300
O1654       O  0.82645870  0.22116842  0.84421860    -0.38300
O1655       O  0.71519525  0.25904382  0.78584161    -0.39000
O1656       O  0.74602017  0.27371125  0.74052313    -0.39000
C1657       C  0.56946868  0.03778755  0.67343865    -0.11300
C1658       C  0.54772667  0.04107659  0.65197020     0.05700
C1659       C  0.55367088  0.07082189  0.64607433    -0.06600
C1660       C  0.57856022  0.09413514  0.66333416    -0.07400
C1661       C  0.59907056  0.08965911  0.68525123    -0.01900
C1662       C  0.59483930  0.06116364  0.68865997     0.04900
N1663       N  0.61482933  0.05475406  0.71020976     0.67400
H1664       H  0.56699745  0.01679714  0.68089688     0.16300
H1665       H  0.58135064  0.11595586  0.66040529     0.16000
N1666       N  0.53361807  0.07798792  0.62592586     0.75100
O1667       O  0.61167562  0.04992900  0.74502294    -0.38300
O1668       O  0.62959445  0.04613668  0.69384134    -0.38300
O1669       O  0.51846466  0.08508767  0.64419849    -0.39000
O1670       O  0.53873810  0.08729554  0.59234573    -0.39000
C1671       C  0.68851255  0.11475076  0.88012725    -0.11300
C1672       C  0.65984278  0.10767481  0.86881390     0.05700
C1673       C  0.63583505  0.08214688  0.88394222    -0.06600
C1674       C  0.64129670  0.06129403  0.90323534    -0.07400
C1675       C  0.66956505  0.06462397  0.90175364    -0.01900
C1676       C  0.69369507  0.09311659  0.89685110     0.04900
N1677       N  0.72312847  0.09818701  0.89768214     0.67400
H1678       H  0.70710836  0.13510041  0.86984061     0.16300
H1679       H  0.62261481  0.03972063  0.90943176     0.16000
N1680       N  0.60634069  0.07444239  0.87291500     0.75100
O1681       O  0.73319398  0.09481683  0.86844686    -0.38300
O1682       O  0.74094510  0.11396201  0.92249726    -0.38300
O1683       O  0.59468073  0.05955809  0.84448164    -0.39000
O1684       O  0.59464274  0.08754229  0.88633734    -0.39000
C1685       C  0.89565157  0.32785396  0.72456143    -0.11300
C1686       C  0.91190054  0.33258517  0.75822628     0.05700
C1687       C  0.94048419  0.33680004  0.75870928    -0.06600
C1688       C  0.95307851  0.33805076  0.72514416    -0.07400
C1689       C  0.93750686  0.33506023  0.69119986    -0.01900
C1690       C  0.90820442  0.32902714  0.69092541     0.04900
N1691       N  0.89186628  0.32674048  0.65692673     0.67400
H1692       H  0.87354864  0.32464402  0.72421579     0.16300
H1693       H  0.97559656  0.34241527  0.72554667     0.16000
N1694       N  0.95800508  0.34263796  0.79226647     0.75100
O1695       O  0.87427237  0.30163916  0.64522761    -0.38300
O1696       O  0.88859296  0.34807667  0.64534498    -0.38300
O1697       O  0.96280753  0.32297669  0.80697647    -0.39000
O1698       O  0.97490774  0.36892038  0.80050608    -0.39000
C1699       C  0.59345668  0.39415290  0.70923356    -0.11300
C1700       C  0.58462760  0.40396934  0.67642473     0.05700
C1701       C  0.59279956  0.43372816  0.67147638    -0.06600
C1702       C  0.60657504  0.45216051  0.70084832    -0.07400
C1703       C  0.61227851  0.44162553  0.73545539    -0.01900
C1704       C  0.60726577  0.41267468  0.73877807     0.04900
N1705       N  0.61415843  0.40098468  0.77235264     0.67400
H1706       H  0.58719824  0.37122260  0.71326459     0.16300
H1707       H  0.61115345  0.47455059  0.69701338     0.16000
N1708       N  0.58366547  0.44476990  0.63914650     0.75100
O1709       O  0.59420690  0.38666045  0.79578605    -0.38300
O1710       O  0.63617449  0.39733699  0.77306773    -0.38300
O1711       O  0.56063358  0.44654091  0.64049223    -0.39000
O1712       O  0.60239791  0.46021563  0.61475208    -0.39000
C1713       C  0.95343648  0.44829330  0.54530080    -0.11300
C1714       C  0.97485306  0.47171938  0.52276697     0.05700
C1715       C  0.51939510  0.46874070  0.53949101    -0.06600
C1716       C  0.51748480  0.44191578  0.55228276    -0.07400
C1717       C  0.97518092  0.41693665  0.53976321    -0.01900
C1718       C  0.95380697  0.42208045  0.55444503     0.04900
N1719       N  0.93269479  0.40150628  0.58031126     0.67400
H1720       H  0.93551132  0.44953724  0.55655274     0.16300
H1721       H  0.53652116  0.43936176  0.54937637     0.16000
N1722       N  0.54575768  0.48853301  0.52062117     0.75100
O1723       O  0.93783945  0.40559569  0.61477592    -0.38300
O1724       O  0.90649949  0.38546724  0.56898631    -0.38300
O1725       O  0.04160799  0.49663070  0.48445116    -0.39000
O1726       O  0.54919837  0.47966355  0.49082892    -0.39000
C1727       C  0.46215440  0.21386835  0.67406592    -0.11300
C1728       C  0.98450342  0.21635140  0.66515077     0.05700
C1729       C  0.00935410  0.23814435  0.64558500    -0.06600
C1730       C  0.00726724  0.25956993  0.62184337    -0.07400
C1731       C  0.98094704  0.26059753  0.61738589    -0.01900
C1732       C  0.46201940  0.23694784  0.65215472     0.04900
N1733       N  0.43840243  0.24246250  0.65660476     0.67400
H1734       H  0.44452213  0.20135699  0.69351041     0.16300
H1735       H  0.02716004  0.27694400  0.60914735     0.16000
N1736       N  0.03781018  0.24148036  0.65323613     0.75100
O1737       O  0.41504445  0.22873735  0.63734553    -0.38300
O1738       O  0.43772993  0.25404217  0.68585802    -0.38300
O1739       O  0.05129158  0.23866722  0.62722105    -0.39000
O1740       O  0.05233545  0.25546816  0.68124744    -0.39000
C1741       C  0.63245217  0.23205724  0.77089360    -0.11300
C1742       C  0.63560908  0.21422474  0.79904894     0.05700
C1743       C  0.62066395  0.20867771  0.83261620    -0.06600
C1744       C  0.59632403  0.21278389  0.83272891    -0.07400
C1745       C  0.58772534  0.22258225  0.79965166    -0.01900
C1746       C  0.60855615  0.23664856  0.77116066     0.04900
N1747       N  0.60334892  0.25124274  0.73931347     0.67400
H1748       H  0.64548627  0.23853776  0.74599152     0.16300
H1749       H  0.58166906  0.20367989  0.85614743     0.16000
N1750       N  0.62761901  0.19529065  0.86453960     0.75100
O1751       O  0.61588682  0.27885409  0.73851976    -0.38300
O1752       O  0.59631166  0.23865562  0.70878566    -0.38300
O1753       O  0.65392307  0.20658721  0.87657993    -0.39000
O1754       O  0.60889278  0.16986645  0.87637232    -0.39000
C1755       C  0.96831106  0.05966529  0.81798687    -0.11300
C1756       C  0.49328228  0.07337911  0.80551041     0.05700
C1757       C  0.51706203  0.06799808  0.81170832    -0.06600
C1758       C  0.51236997  0.04062813  0.82728333    -0.07400
C1759       C  0.48461098  0.01807298  0.84031361    -0.01900
C1760       C  0.96631182  0.03529170  0.83964688     0.04900
N1761       N  0.94057385  0.01888157  0.86144091     0.67400
H1762       H  0.94981959  0.06340394  0.81740019     0.16300
H1763       H  0.53161883  0.03829820  0.83143141     0.16000
N1764       N  0.54664724  0.09066537  0.80501078     0.75100
O1765       O  0.94112337  0.02726618  0.89371743    -0.38300
O1766       O  0.91597558  0.00541290  0.84454480    -0.38300
O1767       O  0.56041592  0.10853969  0.83019856    -0.39000
O1768       O  0.56118967  0.08732539  0.78092237    -0.39000
C1769       C  0.72106996  0.98815948  0.73409571    -0.11300
C1770       C  0.72377900  0.01179094  0.75339740     0.05700
C1771       C  0.75149003  0.03789051  0.75309298    -0.06600
C1772       C  0.77602110  0.03898687  0.73674637    -0.07400
C1773       C  0.77406342  0.01436175  0.72071951    -0.01900
C1774       C  0.74565990  0.98933676  0.71780440     0.04900
N1775       N  0.74151027  0.96462677  0.69877907     0.67400
H1776       H  0.69999580  0.96809260  0.73301722     0.16300
H1777       H  0.79649033  0.55243948  0.73206388     0.16000
N1778       N  0.75503173  0.06344897  0.76955058     0.75100
O1779       O  0.74017349  0.94281446  0.71729524    -0.38300
O1780       O  0.72309344  0.45345115  0.67422257    -0.38300
O1781       O  0.76535192  0.06903155  0.80243952    -0.39000
O1782       O  0.75745770  0.57666256  0.76517849    -0.39000
C1783       C  0.82324136  0.40107774  0.71072259    -0.11300
C1784       C  0.81413501  0.41824184  0.72737798     0.05700
C1785       C  0.80802928  0.41376877  0.76576921    -0.06600
C1786       C  0.81432104  0.39460733  0.78751660    -0.07400
C1787       C  0.82789855  0.38091964  0.77189363    -0.01900
C1788       C  0.83089494  0.38295857  0.73266482     0.04900
N1789       N  0.84361948  0.36871506  0.71474407     0.67400
H1790       H  0.82799373  0.40445727  0.68119338     0.16300
H1791       H  0.81120196  0.39276867  0.81737588     0.16000
N1792       N  0.79770955  0.43015824  0.78373353     0.75100
O1793       O  0.82675162  0.34551382  0.69818803    -0.38300
O1794       O  0.87022136  0.38354826  0.70546224    -0.38300
O1795       O  0.77102962  0.41754260  0.79263074    -0.39000
O1796       O  0.81609632  0.45275690  0.80038719    -0.39000
C1797       C  0.89425752  0.12594516  0.81461277    -0.11300
C1798       C  0.92052645  0.13125358  0.83315966     0.05700
C1799       C  0.92037802  0.10649770  0.85090248    -0.06600
C1800       C  0.90395535  0.07956044  0.83404396    -0.07400
C1801       C  0.88510927  0.07719640  0.80363585    -0.01900
C1802       C  0.87749028  0.09930856  0.79719083     0.04900
N1803       N  0.85318181  0.09517363  0.77344689     0.67400
H1804       H  0.89098609  0.14417451  0.80573199     0.16300
H1805       H  0.90773287  0.06161953  0.84266126     0.16000
N1806       N  0.94144324  0.10955344  0.87969348     0.75100
O1807       O  0.82906426  0.08761314  0.78842156    -0.38300
O1808       O  0.85791956  0.10717836  0.74101010    -0.38300
O1809       O  0.93253712  0.10009834  0.91239033    -0.39000
O1810       O  0.96636388  0.11396487  0.87102854    -0.39000
C1811       C  0.92345031  0.50128613  0.52079932    -0.11300
C1812       C  0.94811077  0.50054295  0.53793954     0.05700
C1813       C  0.97906487  0.00769907  0.68655935    -0.06600
C1814       C  0.95511039  0.01128794  0.69511658    -0.07400
C1815       C  0.90265901  0.50132145  0.58139822    -0.01900
C1816       C  0.90131929  0.50189842  0.54163741     0.04900
N1817       N  0.87771098  0.50292325  0.52135537     0.67400
H1818       H  0.92126971  0.50195181  0.49068962     0.16300
H1819       H  0.95380262  0.01603331  0.72362409     0.16000
N1820       N  0.99740886  0.00824715  0.71743398     0.75100
O1821       O  0.88241601  0.52705567  0.50594671    -0.38300
O1822       O  0.85696265  0.47947641  0.50880270    -0.38300
O1823       O  0.01489865  0.03268366  0.73096006    -0.39000
O1824       O  0.97049672  0.47848446  0.61649597    -0.39000
O1825       O  0.85138759  0.98122979  0.21779743    -0.56900
C1826       C  0.88207949  0.55823284  0.27379235     0.75800
O1827       O  0.89825627  0.51612260  0.16468796    -0.58000
C1828       C  0.83353450  0.95564466  0.20777034     0.75700
C1829       C  0.81400027  0.51955495  0.20065103     0.78100
Cd1830     Cd  0.86564996  0.51379183  0.22156992     1.37500
O1831       O  0.87971880  0.53365491  0.28385317    -0.56900
O1832       O  0.78982389  0.98295734  0.17855060    -0.55700
C1833       C  0.88609431  0.00869921  0.10735387     0.78100
O1834       O  0.81390541  0.02945756  0.18225014    -0.58100
O1835       O  0.88003267  0.56328871  0.23903536    -0.56500
O1836       O  0.82047191  0.95291043  0.17616418    -0.56500
O1837       O  0.91302858  0.51109432  0.21928897    -0.55700
O1838       O  0.55503611  0.68913714  0.27976177    -0.56900
C1839       C  0.94787536  0.64969608  0.30701908     0.75800
O1840       O  0.96786609  0.60508386  0.25396609    -0.58000
C1841       C  0.55539675  0.70036313  0.30998212     0.75700
C1842       C  0.98377628  0.69350436  0.19079675     0.78100
Cd1843     Cd  0.99214407  0.66116063  0.25579930     1.37500
O1844       O  0.94367266  0.64803015  0.27193084    -0.56900
O1845       O  0.99029852  0.67381558  0.18560475    -0.55700
C1846       C  0.50114902  0.60257455  0.29106964     0.78100
O1847       O  0.97981259  0.69643260  0.22428871    -0.58100
O1848       O  0.97432912  0.66100323  0.31897063    -0.56500
O1849       O  0.53084058  0.69407599  0.32299285    -0.56500
O1850       O  0.01198417  0.62710964  0.27563891    -0.55700
O1851       O  0.96963723  0.83877736  0.17907075    -0.56900
C1852       C  0.53765079  0.88427639  0.15750123     0.75800
O1853       O  0.95446885  0.78946224  0.10210648    -0.58000
C1854       C  0.94200375  0.82553098  0.17388677     0.75700
C1855       C  0.97385323  0.89034452  0.07447209     0.78100
Cd1856     Cd  0.98088287  0.84305562  0.11516528     1.37500
O1857       O  0.51090087  0.87585496  0.16235997    -0.56900
O1858       O  0.95544518  0.87278773  0.09809904    -0.55700
C1859       C  0.97707545  0.78672779  0.10673245     0.78100
O1860       O  0.99260799  0.88345175  0.06538436    -0.58100
O1861       O  0.54324015  0.87169833  0.13290934    -0.56500
O1862       O  0.93196806  0.82027017  0.14065092    -0.56500
O1863       O  0.00145684  0.81046401  0.10482720    -0.55700
O1864       O  0.62717845  0.65459148  0.32256196    -0.56900
C1865       C  0.65848236  0.61421730  0.33601659     0.75800
O1866       O  0.63443258  0.60350620  0.22652638    -0.58000
C1867       C  0.63232622  0.67912563  0.30751462     0.75700
C1868       C  0.71041298  0.69387641  0.27936048     0.78100
Cd1869     Cd  0.65123610  0.64492809  0.27338872     1.37500
O1870       O  0.63612378  0.61757161  0.33444244    -0.56900
O1871       O  0.70549095  0.66776068  0.28220763    -0.55700
C1872       C  0.61204191  0.60422384  0.21284316     0.78100
O1873       O  0.69020632  0.69733997  0.26327312    -0.58100
O1874       O  0.67445788  0.62249242  0.30758568    -0.56500
O1875       O  0.64370868  0.68589333  0.27553540    -0.56500
O1876       O  0.60937170  0.62496959  0.22411636    -0.55700
O1877       O  0.68485789  0.54701714  0.32882299    -0.56900
C1878       C  0.61611666  0.96046968  0.26831687     0.75800
O1879       O  0.71346196  0.52203897  0.28977913    -0.58000
C1880       C  0.68257326  0.53962444  0.36341347     0.75700
C1881       C  0.61074758  0.99479819  0.38071944     0.78100
Cd1882     Cd  0.66139298  0.49815335  0.30781058     1.37500
O1883       O  0.62131657  0.98666412  0.26781544    -0.56900
O1884       O  0.61717831  0.50589079  0.28328823    -0.55700
C1885       C  0.70953906  0.51433593  0.25638116     0.78100
O1886       O  0.61142381  0.47773555  0.33151293    -0.58100
O1887       O  0.62698661  0.95187946  0.29545927    -0.56500
O1888       O  0.67466704  0.51314110  0.37270140    -0.56500
O1889       O  0.68294865  0.50162189  0.24435158    -0.55700
C1890       C  0.98518517  0.00792490  0.02874967    -0.01500
C1891       C  0.51611551  0.99072611  0.47390616    -0.01500
O1892       O  0.86643067  0.86922247  0.30139611    -0.56900
C1893       C  0.88991720  0.82840650  0.30437235     0.75800
O1894       O  0.91136524  0.86404663  0.39807577    -0.58000
C1895       C  0.84686675  0.87529724  0.30859225     0.75700
C1896       C  0.81118124  0.78567845  0.35913199     0.78100
Cd1897     Cd  0.86436007  0.84264373  0.35944795     1.37500
O1898       O  0.88282073  0.84806525  0.30035031    -0.56900
O1899       O  0.83613750  0.78754607  0.36278744    -0.55700
C1900       C  0.91083834  0.88632005  0.40804754     0.78100
O1901       O  0.81063346  0.80858380  0.36646415    -0.58100
O1902       O  0.88831287  0.81662452  0.33680279    -0.56500
O1903       O  0.83553470  0.86690234  0.34063065    -0.56500
O1904       O  0.88675320  0.88592537  0.40124899    -0.55700
C1905       C  0.96101950  0.90835381  0.43900917    -0.11300
C1906       C  0.93751514  0.91185686  0.42477789     0.05700
C1907       C  0.94189707  0.94059881  0.42228095    -0.06600
C1908       C  0.96837860  0.96424754  0.43517518    -0.07400
C1909       C  0.99072632  0.96068899  0.45437673    -0.01900
C1910       C  0.98731695  0.93191327  0.45304887     0.04900
N1911       N  0.01095574  0.92623921  0.46205630     0.67400
H1912       H  0.95934201  0.88705306  0.43856652     0.16300
H1913       H  0.97094711  0.98557175  0.42890390     0.16000
N1914       N  0.92023080  0.94683383  0.40545083     0.75100
O1915       O  0.00937844  0.91074021  0.49112912    -0.38300
O1916       O  0.02610297  0.92675400  0.43556422    -0.38300
O1917       O  0.90364409  0.95004057  0.42644107    -0.39000
O1918       O  0.92404178  0.95808360  0.37262558    -0.39000
C1919       C  0.96022539  0.98484827  0.96516923    -0.11300
C1920       C  0.98432047  0.00840736  0.98369220     0.05700
C1921       C  0.53389003  0.52333427  0.06649220    -0.06600
C1922       C  0.51347516  0.51644050  0.41846995    -0.07400
C1923       C  0.51806468  0.99165395  0.51797642    -0.01900
C1924       C  0.99408722  0.96569917  0.53994336     0.04900
N1925       N  0.96954807  0.93988731  0.52571328     0.67400
H1926       H  0.94173425  0.96898490  0.98155735     0.16300
H1927       H  0.53145455  0.53216458  0.40117418     0.16000
N1928       N  0.55854362  0.54994105  0.07857535     0.75100
O1929       O  0.96839887  0.91554553  0.53218477    -0.38300
O1930       O  0.94628471  0.94018338  0.51564853    -0.38300
O1931       O  0.55246950  0.03463221  0.97380645    -0.39000
O1932       O  0.55996462  0.57369942  0.06689237    -0.39000
C1933       C  0.59015862  0.99183788  0.44581445    -0.11300
C1934       C  0.58777789  0.99363795  0.40641339     0.05700
C1935       C  0.55296291  0.49337445  0.29547472    -0.06600
C1936       C  0.52739099  0.49208485  0.30864475    -0.07400
C1937       C  0.54317660  0.99179940  0.45389267    -0.01900
C1938       C  0.56832318  0.99038191  0.46957647     0.04900
N1939       N  0.57139390  0.98482543  0.50863412     0.67400
H1940       H  0.60874856  0.99062398  0.45847696     0.16300
H1941       H  0.51468467  0.49735373  0.28985840     0.16000
N1942       N  0.56039708  0.50324650  0.25789804     0.75100
O1943       O  0.59114700  0.00534982  0.52722966    -0.38300
O1944       O  0.56331641  0.95882593  0.52015562    -0.38300
O1945       O  0.54763521  0.48512418  0.23272145    -0.39000
O1946       O  0.56946852  0.53000780  0.25012820    -0.39000
C1947       C  0.76187567  0.71554464  0.30615455    -0.11300
C1948       C  0.73682572  0.71819077  0.29788814     0.05700
C1949       C  0.73577097  0.74176454  0.31295810    -0.06600
C1950       C  0.75930532  0.76189091  0.33495103    -0.07400
C1951       C  0.78482335  0.75993106  0.34233844    -0.01900
C1952       C  0.78582603  0.73614731  0.32750797     0.04900
N1953       N  0.81110207  0.73269900  0.33276878     0.67400
H1954       H  0.76301450  0.69734004  0.29577108     0.16300
H1955       H  0.75775092  0.77980649  0.34551261     0.16000
N1956       N  0.71050818  0.74521260  0.30771056     0.75100
O1957       O  0.81030337  0.71370776  0.35676982    -0.38300
O1958       O  0.82927397  0.74134202  0.30676821    -0.38300
O1959       O  0.69262522  0.73697552  0.33397224    -0.39000
O1960       O  0.71117825  0.76396316  0.28340554    -0.39000
C1961       C  0.56321578  0.53158508  0.16396631    -0.11300
C1962       C  0.53808148  0.53318609  0.15080461     0.05700
C1963       C  0.54078072  0.56166662  0.15375612    -0.06600
C1964       C  0.56487931  0.58401124  0.17353426    -0.07400
C1965       C  0.58901844  0.58131268  0.18734708    -0.01900
C1966       C  0.58888128  0.55547425  0.17889197     0.04900
N1967       N  0.61472989  0.55296162  0.18426250     0.67400
H1968       H  0.56387396  0.51183300  0.16270728     0.16300
H1969       H  0.56468506  0.60404369  0.17778014     0.16000
N1970       N  0.51946699  0.56892791  0.13776737     0.75100
O1971       O  0.61616199  0.53695080  0.21106517    -0.38300
O1972       O  0.63091194  0.55868108  0.15662749    -0.38300
O1973       O  0.50353333  0.57248909  0.15948919    -0.39000
O1974       O  0.52445928  0.58235841  0.10623834    -0.39000
C1975       C  0.69607196  0.60975806  0.37387856    -0.11300
C1976       C  0.66615670  0.60059810  0.36818474     0.05700
C1977       C  0.64509161  0.57363594  0.38444230    -0.06600
C1978       C  0.65387102  0.55329571  0.39672083    -0.07400
C1979       C  0.68270567  0.55966125  0.38974221    -0.01900
C1980       C  0.70462809  0.58935411  0.38545526     0.04900
N1981       N  0.73510100  0.59803302  0.38455891     0.67400
H1982       H  0.71268080  0.63143313  0.36384671     0.16300
H1983       H  0.63687409  0.53082404  0.40289914     0.16000
N1984       N  0.61459384  0.56514364  0.38293068     0.75100
O1985       O  0.74653113  0.60070161  0.35347767    -0.38300
O1986       O  0.75160415  0.61166429  0.41164096    -0.38300
O1987       O  0.59907871  0.55285287  0.35455693    -0.39000
O1988       O  0.60534994  0.57618626  0.40499241    -0.39000
C1989       C  0.88808502  0.82534979  0.23691057    -0.11300
C1990       C  0.89867173  0.82005960  0.27153792     0.05700
C1991       C  0.91879883  0.80980767  0.27284058    -0.06600
C1992       C  0.93119220  0.80932690  0.23968895    -0.07400
C1993       C  0.92304984  0.81817016  0.20553367    -0.01900
C1994       C  0.90010419  0.82457696  0.20392766     0.04900
N1995       N  0.89124623  0.83387808  0.16984286     0.67400
H1996       H  0.87149547  0.83184918  0.23546555     0.16300
H1997       H  0.94837705  0.80358661  0.24083247     0.16000
N1998       N  0.92812810  0.80146282  0.30726430     0.75100
O1999       O  0.86732196  0.81615959  0.15403099    -0.38300
O2000       O  0.90233402  0.86096698  0.16197090    -0.38300
O2001       O  0.91695523  0.77454696  0.31645478    -0.39000
O2002       O  0.95227766  0.81954549  0.32228616    -0.39000
C2003       C  0.58244013  0.90111627  0.19758127    -0.11300
C2004       C  0.56055925  0.90638049  0.18127324     0.05700
C2005       C  0.55842198  0.93038470  0.19228211    -0.06600
C2006       C  0.57718535  0.94777132  0.22025528    -0.07400
C2007       C  0.59779287  0.94144056  0.23838230    -0.01900
C2008       C  0.60082039  0.91817952  0.22640788     0.04900
N2009       N  0.62204984  0.91131108  0.24323882     0.67400
H2010       H  0.58416982  0.88264587  0.18942974     0.16300
H2011       H  0.57492749  0.96590700  0.22857381     0.16000
N2012       N  0.53714976  0.93734752  0.17576068     0.75100
O2013       O  0.61405427  0.89142440  0.26885419    -0.38300
O2014       O  0.64522496  0.91865601  0.22596295    -0.38300
O2015       O  0.51473033  0.93111189  0.19406729    -0.39000
O2016       O  0.54495085  0.95686163  0.14967264    -0.39000
C2017       C  0.95607451  0.95257903  0.05084775    -0.11300
C2018       C  0.98393632  0.97736280  0.04139236     0.05700
C2019       C  0.50934275  0.96013389  0.03402826    -0.06600
C2020       C  0.50595977  0.93185872  0.04017417    -0.07400
C2021       C  0.97539964  0.91880731  0.06085886    -0.01900
C2022       C  0.95181235  0.92440309  0.06107682     0.04900
N2023       N  0.92279046  0.90160604  0.07008106     0.67400
H2024       H  0.93644871  0.95440539  0.04985656     0.16300
H2025       H  0.52534836  0.92968475  0.03868914     0.16000
N2026       N  0.53941024  0.98307153  0.02961105     0.75100
O2027       O  0.91261038  0.90167802  0.10106208    -0.38300
O2028       O  0.90503381  0.88837013  0.04374788    -0.38300
O2029       O  0.05671288  0.00073310  0.05246395    -0.39000
O2030       O  0.55120579  0.98577372  0.99896226    -0.39000
C2031       C  0.47312291  0.70909640  0.15950924    -0.11300
C2032       C  0.98012754  0.71234176  0.16045281     0.05700
C2033       C  0.00359939  0.73337112  0.13820481    -0.06600
C2034       C  0.00095825  0.75571141  0.11751126    -0.07400
C2035       C  0.97551531  0.75815668  0.11886751    -0.01900
C2036       C  0.46931267  0.73047553  0.13798211     0.04900
N2037       N  0.43996039  0.72470215  0.13021744     0.67400
H2038       H  0.45378060  0.68948930  0.16984191     0.16300
H2039       H  0.01993293  0.77264659  0.10269444     0.16000
N2040       N  0.03155309  0.73487984  0.13987874     0.75100
O2041       O  0.42550614  0.70853512  0.10371738    -0.38300
O2042       O  0.42619221  0.72783004  0.15559686    -0.38300
O2043       O  0.03939923  0.72713997  0.11221856    -0.39000
O2044       O  0.05104459  0.75191407  0.16233308    -0.39000
C2045       C  0.62752923  0.72334317  0.30374769    -0.11300
C2046       C  0.62374010  0.69829317  0.32449212     0.05700
C2047       C  0.60648148  0.68929667  0.35659973    -0.06600
C2048       C  0.58642758  0.69917122  0.35997749    -0.07400
C2049       C  0.58339654  0.71640697  0.33042631    -0.01900
C2050       C  0.60804468  0.73355769  0.30789061     0.04900
N2051       N  0.60847746  0.75496715  0.28095381     0.67400
H2052       H  0.64279697  0.73254191  0.28096689     0.16300
H2053       H  0.56951533  0.68842432  0.38073101     0.16000
N2054       N  0.60771790  0.66891928  0.38392439     0.75100
O2055       O  0.62712679  0.78159457  0.28528637    -0.38300
O2056       O  0.59774405  0.74705781  0.24870635    -0.38300
O2057       O  0.63143436  0.67601886  0.40209604    -0.39000
O2058       O  0.58708357  0.64262379  0.38561173    -0.39000
C2059       C  0.95927414  0.55282673  0.30138311    -0.11300
C2060       C  0.49962179  0.57440993  0.30682569     0.05700
C2061       C  0.52357209  0.56925756  0.30864546    -0.06600
C2062       C  0.52098483  0.54327275  0.32600378    -0.07400
C2063       C  0.49437252  0.52019266  0.34113854    -0.01900
C2064       C  0.95646159  0.52773150  0.32199931     0.04900
N2065       N  0.92926020  0.50978241  0.34036168     0.67400
H2066       H  0.94083536  0.55668649  0.30007923     0.16300
H2067       H  0.54098234  0.54217657  0.32844617     0.16000
N2068       N  0.55163301  0.59082784  0.29518150     0.75100
O2069       O  0.92623267  0.51711004  0.37183531    -0.38300
O2070       O  0.90651550  0.49588783  0.32016137    -0.38300
O2071       O  0.57157977  0.60549240  0.31869508    -0.39000
O2072       O  0.55894601  0.58769376  0.26374167    -0.39000
C2073       C  0.73255074  0.49468297  0.21563045    -0.11300
C2074       C  0.73487142  0.51837507  0.23424700     0.05700
C2075       C  0.76284368  0.54378792  0.23686152    -0.06600
C2076       C  0.78767327  0.54491025  0.22163895    -0.07400
C2077       C  0.78596348  0.52039270  0.20566549    -0.01900
C2078       C  0.75765305  0.49525297  0.20214108     0.04900
N2079       N  0.75428660  0.46910998  0.18795709     0.67400
H2080       H  0.71144635  0.47466933  0.21408061     0.16300
H2081       H  0.79332954  0.04898670  0.23139792     0.16000
N2082       N  0.76651727  0.56808823  0.25663835     0.75100
O2083       O  0.75223494  0.44878166  0.21047204    -0.38300
O2084       O  0.72520322  0.94878271  0.17296673    -0.38300
O2085       O  0.77307025  0.56930350  0.29107087    -0.39000
O2086       O  0.75197447  0.06917840  0.26950087    -0.39000
C2087       C  0.83872080  0.91223757  0.21814069    -0.11300
C2088       C  0.82992689  0.93070900  0.23168912     0.05700
C2089       C  0.82367990  0.92870016  0.26978866    -0.06600
C2090       C  0.82749233  0.90900956  0.29408393    -0.07400
C2091       C  0.83858794  0.89208374  0.28117054    -0.01900
C2092       C  0.84357411  0.89328991  0.24254055     0.04900
N2093       N  0.85457841  0.87634740  0.22759826     0.67400
H2094       H  0.84400283  0.91408672  0.18894307     0.16300
H2095       H  0.82346131  0.90831448  0.32352025     0.16000
N2096       N  0.81457485  0.94731283  0.28449183     0.75100
O2097       O  0.83678329  0.85327636  0.21137811    -0.38300
O2098       O  0.88166148  0.88850261  0.22087971    -0.38300
O2099       O  0.78762079  0.93722229  0.29033980    -0.39000
O2100       O  0.83344957  0.97014325  0.30033626    -0.39000
C2101       C  0.89612875  0.62865104  0.31307186    -0.11300
C2102       C  0.92239973  0.63419499  0.33182282     0.05700
C2103       C  0.92136737  0.60929940  0.35032812    -0.06600
C2104       C  0.90641900  0.58270096  0.33242765    -0.07400
C2105       C  0.88863335  0.58060131  0.30086774    -0.01900
C2106       C  0.88053638  0.60244641  0.29427324     0.04900
N2107       N  0.85658290  0.59826144  0.26986523     0.67400
H2108       H  0.89240686  0.64668625  0.30475899     0.16300
H2109       H  0.91008754  0.56479696  0.34170106     0.16000
N2110       N  0.93890554  0.61169138  0.38305592     0.75100
O2111       O  0.83176722  0.58850328  0.28409738    -0.38300
O2112       O  0.86182863  0.61270102  0.23899651    -0.38300
O2113       O  0.92646425  0.60370445  0.41417607    -0.39000
O2114       O  0.96359027  0.61348095  0.38006379    -0.39000
C2115       C  0.93576180  0.01078956  0.02710907    -0.11300
C2116       C  0.95827379  0.00806509  0.04762186     0.05700
C2117       C  0.98819964  0.50717503  0.18590862    -0.06600
C2118       C  0.96421554  0.51033062  0.19604794    -0.07400
C2119       C  0.91005338  0.00888739  0.08432169    -0.01900
C2120       C  0.91215905  0.01122411  0.04475557     0.04900
N2121       N  0.89082330  0.01424746  0.02160751     0.67400
H2122       H  0.93656758  0.01328752  0.99700244     0.16300
H2123       H  0.96145020  0.51147426  0.22544258     0.16000
N2124       N  0.00558393  0.50421114  0.21594891     0.75100
O2125       O  0.89680713  0.03952231  0.00913642    -0.38300
O2126       O  0.87139398  0.99222313  0.00489207    -0.38300
O2127       O  0.02590405  0.52708151  0.23017522    -0.39000
O2128       O  0.96932771  0.97749750  0.12614414    -0.39000
O2129       O  0.84631831  0.98041523  0.78943053    -0.56900
C2130       C  0.88210707  0.53978813  0.72267851     0.75800
O2131       O  0.86048026  0.50815495  0.59874500    -0.58000
C2132       C  0.82556771  0.95685218  0.77705700     0.75700
C2133       C  0.79184323  0.50692406  0.69354570     0.78100
Cd2134     Cd  0.84199000  0.50084421  0.66980140     1.37500
O2135       O  0.87320824  0.51262500  0.72541938    -0.56900
O2136       O  0.80177862  0.98965674  0.70911567    -0.55700
C2137       C  0.90592586  0.00846816  0.68464301     0.78100
O2138       O  0.82740589  0.03578223  0.71570916    -0.58100
O2139       O  0.87453426  0.54929733  0.69311557    -0.56500
O2140       O  0.82088199  0.95646366  0.74201190    -0.56500
O2141       O  0.88128706  0.49497753  0.64190951    -0.55700
O2142       O  0.52386034  0.63306188  0.80752512    -0.56900
C2143       C  0.95992359  0.61756954  0.83156593     0.75800
O2144       O  0.00134508  0.60392594  0.91966994    -0.58000
C2145       C  0.54872788  0.65635286  0.80767287     0.75700
C2146       C  0.02577710  0.70286807  0.87668284     0.78100
Cd2147     Cd  0.01577347  0.64434144  0.86936629     1.37500
O2148       O  0.98221616  0.63926209  0.81713927    -0.56900
O2149       O  0.00297809  0.68128738  0.89077798    -0.55700
C2150       C  0.50918537  0.60353088  0.91173141     0.78100
O2151       O  0.04603740  0.69784925  0.86914869    -0.58100
O2152       O  0.96252706  0.61041227  0.86542540    -0.56500
O2153       O  0.55372894  0.67469710  0.83203622    -0.56500
O2154       O  0.04551822  0.62312793  0.90144519    -0.55700
O2155       O  0.96400224  0.83037510  0.81108065    -0.56900
C2156       C  0.55212481  0.88027975  0.83043937     0.75800
O2157       O  0.00864638  0.81427598  0.82478393    -0.58000
C2158       C  0.94818584  0.80985459  0.78914287     0.75700
C2159       C  0.00567031  0.89405323  0.72712261     0.78100
Cd2160     Cd  0.00842774  0.84861469  0.77823143     1.37500
O2161       O  0.52780604  0.87903448  0.83651633    -0.56900
O2162       O  0.99813787  0.88975914  0.76104841    -0.55700
C2163       C  0.01797768  0.80139047  0.80562793     0.78100
O2164       O  0.01462828  0.87734678  0.71613901    -0.58100
O2165       O  0.55656680  0.87658320  0.79732902    -0.56500
O2166       O  0.96060019  0.80772053  0.76098837    -0.56500
O2167       O  0.02272803  0.80987424  0.77105043    -0.55700
O2168       O  0.63161927  0.65714262  0.68309555    -0.56900
C2169       C  0.67613754  0.64172141  0.65875946     0.75800
O2170       O  0.60236136  0.64085520  0.57078621    -0.58000
C2171       C  0.61625006  0.66936994  0.68197698     0.75700
C2172       C  0.69410572  0.72520892  0.61365944     0.78100
Cd2173     Cd  0.64522118  0.66596683  0.61990360     1.37500
O2174       O  0.66366441  0.65313285  0.67462958    -0.56900
O2175       O  0.69750092  0.70442464  0.60409906    -0.55700
C2176       C  0.59742293  0.61507578  0.58014286     0.78100
O2177       O  0.66765860  0.71962234  0.61436935    -0.58100
O2178       O  0.67597699  0.64300297  0.62323631    -0.56500
O2179       O  0.61349792  0.68062003  0.65075294    -0.56500
O2180       O  0.61550051  0.61418201  0.60392854    -0.55700
O2181       O  0.64807678  0.53281286  0.76039719    -0.56900
C2182       C  0.64347958  0.94669513  0.87423045     0.75800
O2183       O  0.68314004  0.48293967  0.80571616    -0.58000
C2184       C  0.67006193  0.55778342  0.76600055     0.75700
C2185       C  0.59050357  0.98528590  0.82630749     0.78100
Cd2186     Cd  0.65321182  0.50760018  0.81585985     1.37500
O2187       O  0.63857443  0.94650616  0.83917522    -0.56900
O2188       O  0.60601110  0.50240753  0.83910386    -0.55700
C2189       C  0.70682637  0.50632257  0.79718728     0.78100
O2190       O  0.63449247  0.50569260  0.88502536    -0.58100
O2191       O  0.65777189  0.97136676  0.88871408    -0.56500
O2192       O  0.68295346  0.56110105  0.79781234    -0.56500
O2193       O  0.70821858  0.52963034  0.80736841    -0.55700
C2194       C  0.01171810  0.99879267  0.63971131    -0.01500
C2195       C  0.47975048  0.98680919  0.85693572    -0.01500
O2196       O  0.79872367  0.86466340  0.77328269    -0.56900
C2197       C  0.84366822  0.79908968  0.78617783     0.75800
O2198       O  0.86941448  0.89354091  0.75921231    -0.58000
C2199       C  0.79054806  0.85667253  0.80668773     0.75700
C2200       C  0.78373890  0.81110638  0.70949895     0.78100
Cd2201     Cd  0.82578318  0.84071123  0.77018775     1.37500
O2202       O  0.84846201  0.81367445  0.75523675    -0.56900
O2203       O  0.81024526  0.83066576  0.70232411    -0.55700
C2204       C  0.88252463  0.89406240  0.79040629     0.78100
O2205       O  0.77723505  0.80606876  0.74367414    -0.58100
O2206       O  0.82754075  0.80154833  0.80914526    -0.56500
O2207       O  0.79694896  0.83854147  0.82361118    -0.56500
O2208       O  0.87026912  0.87041068  0.81014628    -0.55700
C2209       C  0.92846867  0.91645869  0.83154055    -0.11300
C2210       C  0.91027747  0.92044941  0.80446713     0.05700
C2211       C  0.91871550  0.94953481  0.79280823    -0.06600
C2212       C  0.94320822  0.97334963  0.80950341    -0.07400
C2213       C  0.96033357  0.97007298  0.83950363    -0.01900
C2214       C  0.95378479  0.94029276  0.84738695     0.04900
N2215       N  0.97394919  0.93330008  0.86736720     0.67400
H2216       H  0.92383343  0.89436846  0.83934691     0.16300
H2217       H  0.94877429  0.99456305  0.79712959     0.16000
N2218       N  0.90204278  0.95571744  0.76480442     0.75100
O2219       O  0.96615733  0.91871701  0.89804567    -0.38300
O2220       O  0.99227369  0.93100989  0.84854630    -0.38300
O2221       O  0.89007991  0.97008780  0.77308661    -0.39000
O2222       O  0.90588106  0.95395457  0.73094672    -0.39000
C2223       C  0.99279114  0.97133655  0.57784896    -0.11300
C2224       C  0.01472622  0.99652198  0.59592920     0.05700
C2225       C  0.51621167  0.52119105  0.45714839    -0.06600
C2226       C  0.53391376  0.51783011  0.02851557    -0.07400
C2227       C  0.47679297  0.98861467  0.90061532    -0.01900
C2228       C  0.95903430  0.98049457  0.92605018     0.04900
N2229       N  0.93284555  0.95640857  0.91133301     0.67400
H2230       H  0.97394746  0.95532166  0.59369341     0.16300
H2231       H  0.55198629  0.53426936  0.01195457     0.16000
N2232       N  0.54367402  0.54546150  0.46889779     0.75100
O2233       O  0.92455547  0.93071433  0.92435816    -0.38300
O2234       O  0.91482513  0.96122042  0.89198346    -0.38300
O2235       O  0.59130143  0.04350692  0.59185942    -0.39000
O2236       O  0.54989361  0.57090167  0.45684605    -0.39000
C2237       C  0.54941313  0.97486947  0.86834267    -0.11300
C2238       C  0.56082288  0.98232549  0.83236399     0.05700
C2239       C  0.56073485  0.50182489  0.88416151    -0.06600
C2240       C  0.53897231  0.50016007  0.90695866    -0.07400
C2241       C  0.50781130  0.98330583  0.85024573    -0.01900
C2242       C  0.52317190  0.97417115  0.87733735     0.04900
N2243       N  0.51173604  0.96131757  0.91309267     0.67400
H2244       H  0.56098137  0.96913338  0.89027261     0.16300
H2245       H  0.52072117  0.50122875  0.89289752     0.16000
N2246       N  0.55603427  0.50368518  0.84478655     0.75100
O2247       O  0.52279958  0.97738359  0.94025607    -0.38300
O2248       O  0.50236499  0.93429316  0.91920926    -0.38300
O2249       O  0.53787981  0.48064052  0.82874932    -0.39000
O2250       O  0.56201153  0.52820235  0.82939170    -0.39000
C2251       C  0.71061609  0.76496986  0.65750507    -0.11300
C2252       C  0.71858761  0.75237952  0.63041650     0.05700
C2253       C  0.74898551  0.76223994  0.62699165    -0.06600
C2254       C  0.77005303  0.78336169  0.65092997    -0.07400
C2255       C  0.76154142  0.79371221  0.68013786    -0.01900
C2256       C  0.73127487  0.78432035  0.68297028     0.04900
N2257       N  0.72057308  0.79309027  0.71237829     0.67400
H2258       H  0.68760092  0.75772673  0.66143454     0.16300
H2259       H  0.79306504  0.78997239  0.64840457     0.16000
N2260       N  0.75901272  0.75022094  0.60080754     0.75100
O2261       O  0.71226847  0.81152047  0.70450910    -0.38300
O2262       O  0.71013291  0.77585289  0.74065875    -0.38300
O2263       O  0.77096605  0.76530615  0.57149899    -0.39000
O2264       O  0.76447119  0.73022033  0.61210100    -0.39000
C2265       C  0.54259912  0.53331398  0.56665382    -0.11300
C2266       C  0.52115462  0.53307739  0.54113839     0.05700
C2267       C  0.52385030  0.56131741  0.53198933    -0.06600
C2268       C  0.54899077  0.58749234  0.54370470    -0.07400
C2269       C  0.57171661  0.58708446  0.56583495    -0.01900
C2270       C  0.56788165  0.55917739  0.57740412     0.04900
N2271       N  0.58923272  0.55622083  0.60083942     0.67400
H2272       H  0.53954224  0.51316905  0.58019526     0.16300
H2273       H  0.55022550  0.60831169  0.53619851     0.16000
N2274       N  0.50051292  0.56413537  0.51331797     0.75100
O2275       O  0.58439570  0.54985339  0.63520093    -0.38300
O2276       O  0.60807081  0.55213767  0.58606957    -0.38300
O2277       O  0.48340800  0.56768225  0.53292612    -0.39000
O2278       O  0.50310918  0.57296966  0.47945869    -0.39000
C2279       C  0.67722828  0.59638294  0.67122729    -0.11300
C2280       C  0.68672863  0.62475398  0.68157700     0.05700
C2281       C  0.69703363  0.63265844  0.71835361    -0.06600
C2282       C  0.69315890  0.61084477  0.74578510    -0.07400
C2283       C  0.67961393  0.58138637  0.73636948    -0.01900
C2284       C  0.67357048  0.57463349  0.69819039     0.04900
N2285       N  0.66216546  0.54554849  0.68623530     0.67400
H2286       H  0.66949283  0.59023357  0.64284837     0.16300
H2287       H  0.69911003  0.61667417  0.77458759     0.16000
N2288       N  0.70918860  0.66243924  0.72827803     0.75100
O2289       O  0.63487036  0.53026898  0.67953006    -0.38300
O2290       O  0.67940291  0.53934956  0.67118959    -0.38300
O2291       O  0.69530039  0.66893159  0.74975622    -0.39000
O2292       O  0.72997121  0.68264847  0.70957091    -0.39000
C2293       C  0.86797817  0.77323683  0.76629514    -0.11300
C2294       C  0.85993937  0.78360515  0.79587968     0.05700
C2295       C  0.87706889  0.79014735  0.82918273    -0.06600
C2296       C  0.90537809  0.79414352  0.82845781    -0.07400
C2297       C  0.91629755  0.79124801  0.79519925    -0.01900
C2298       C  0.89613851  0.77666558  0.76588624     0.04900
N2299       N  0.90440914  0.76762654  0.73427657     0.67400
H2300       H  0.85411469  0.76639469  0.74128996     0.16300
H2301       H  0.91997787  0.80326786  0.85243779     0.16000
N2302       N  0.86871125  0.79840768  0.86143059     0.75100
O2303       O  0.89644688  0.74085148  0.73249206    -0.38300
O2304       O  0.91147821  0.78373982  0.70469750    -0.38300
O2305       O  0.85926093  0.78041273  0.88915965    -0.39000
O2306       O  0.87839884  0.82523661  0.86610439    -0.39000
C2307       C  0.57571922  0.90218651  0.89067301    -0.11300
C2308       C  0.57470549  0.88647481  0.86014905     0.05700
C2309       C  0.59743777  0.87963787  0.85730411    -0.06600
C2310       C  0.62351374  0.89503114  0.87841499    -0.07400
C2311       C  0.62760433  0.91932977  0.89690987    -0.01900
C2312       C  0.60202012  0.91690297  0.91154131     0.04900
N2313       N  0.60400068  0.93594209  0.93938299     0.67400
H2314       H  0.55746509  0.90542601  0.89608126     0.16300
H2315       H  0.64245053  0.89315055  0.87219159     0.16000
N2316       N  0.59528670  0.85886209  0.83201316     0.75100
O2317       O  0.60630723  0.96040691  0.92949107    -0.38300
O2318       O  0.59528582  0.92518340  0.97176711    -0.38300
O2319       O  0.60871785  0.86803558  0.80162016    -0.39000
O2320       O  0.58790132  0.83322519  0.84452166    -0.39000
C2321       C  0.98480464  0.95020157  0.68258241    -0.11300
C2322       C  0.00872798  0.96884912  0.65911846     0.05700
C2323       C  0.53245443  0.97065696  0.65286496    -0.06600
C2324       C  0.52933807  0.94579585  0.67428412    -0.07400
C2325       C  0.00491393  0.91804584  0.70217904    -0.01900
C2326       C  0.98360540  0.92662233  0.70511697     0.04900
N2327       N  0.96010765  0.91155356  0.73070018     0.67400
H2328       H  0.96639490  0.95366706  0.68463049     0.16300
H2329       H  0.54415551  0.93770545  0.66949036     0.16000
N2330       N  0.55484602  0.98242914  0.62542715     0.75100
O2331       O  0.96332971  0.92135892  0.76271179    -0.38300
O2332       O  0.93442019  0.89491538  0.71817064    -0.38300
O2333       O  0.07599263  0.98034706  0.63255135    -0.39000
O2334       O  0.54830223  0.97088368  0.59417541    -0.39000
C2335       C  0.52803340  0.74573164  0.81332801    -0.11300
C2336       C  0.02709391  0.73090760  0.86320943     0.05700
C2337       C  0.00988052  0.74152516  0.87750597    -0.06600
C2338       C  0.00817367  0.76482853  0.85855795    -0.07400
C2339       C  0.02219362  0.77744134  0.82432526    -0.01900
C2340       C  0.52760675  0.77011262  0.79577922     0.04900
N2341       N  0.54423182  0.78322495  0.76279913     0.67400
H2342       H  0.54053075  0.73748377  0.80060740     0.16300
H2343       H  0.99467943  0.77234448  0.87030339     0.16000
N2344       N  0.99347877  0.72880623  0.91074067     0.75100
O2345       O  0.57157617  0.80059946  0.76608258    -0.38300
O2346       O  0.53390826  0.77100279  0.73227519    -0.38300
O2347       O  0.00263252  0.74279331  0.94023087    -0.39000
O2348       O  0.96661261  0.70963384  0.90774443    -0.39000
C2349       C  0.59159244  0.64343345  0.73924136    -0.11300
C2350       C  0.60146062  0.66855307  0.71563987     0.05700
C2351       C  0.59711813  0.69153527  0.72498765    -0.06600
C2352       C  0.58151464  0.68824887  0.75711539    -0.07400
C2353       C  0.56997253  0.66202667  0.77929140    -0.01900
C2354       C  0.57563232  0.63980734  0.77052621     0.04900
N2355       N  0.56508450  0.61314072  0.79272261     0.67400
H2356       H  0.59524712  0.62578580  0.73257628     0.16300
H2357       H  0.57720127  0.70547167  0.76372138     0.16000
N2358       N  0.60848908  0.71805993  0.70226455     0.75100
O2359       O  0.54163385  0.59087212  0.78244716    -0.38300
O2360       O  0.58339148  0.60946341  0.81315510    -0.38300
O2361       O  0.59262472  0.72034491  0.67607584    -0.39000
O2362       O  0.63580353  0.73604570  0.70300734    -0.39000
C2363       C  0.00253118  0.55448174  0.95725658    -0.11300
C2364       C  0.51138608  0.57848797  0.93134969     0.05700
C2365       C  0.53696520  0.57611189  0.93060229    -0.06600
C2366       C  0.53629898  0.54985075  0.94216622    -0.07400
C2367       C  0.51066035  0.52452422  0.95560082    -0.01900
C2368       C  0.00073956  0.52756471  0.96915185     0.04900
N2369       N  0.97697465  0.50871044  0.99301215     0.67400
H2370       H  0.98479062  0.55814207  0.96401129     0.16300
H2371       H  0.55695605  0.55011696  0.94114020     0.16000
N2372       N  0.56427596  0.60008124  0.91810403     0.75100
O2373       O  0.98060648  0.51423405  0.02706444    -0.38300
O2374       O  0.95105568  0.49724096  0.97954765    -0.38300
O2375       O  0.58275948  0.61616370  0.94216958    -0.39000
O2376       O  0.57334688  0.59891434  0.88685477    -0.39000
C2377       C  0.72312398  0.48121792  0.75369990    -0.11300
C2378       C  0.72991401  0.50644470  0.77292940     0.05700
C2379       C  0.75672790  0.53231801  0.76388442    -0.06600
C2380       C  0.77589010  0.53238538  0.73735234    -0.07400
C2381       C  0.76908017  0.50714736  0.71812583    -0.01900
C2382       C  0.74196226  0.48143722  0.72662216     0.04900
N2383       N  0.73283991  0.45527919  0.70743812     0.67400
H2384       H  0.70240723  0.46121881  0.75872019     0.16300
H2385       H  0.79697652  0.05898958  0.73751257     0.16000
N2386       N  0.76471280  0.55903329  0.78100853     0.75100
O2387       O  0.73932838  0.43648806  0.72105085    -0.38300
O2388       O  0.74452230  0.96678108  0.66387631    -0.38300
O2389       O  0.77386664  0.56235244  0.81454024    -0.39000
O2390       O  0.74268787  0.07691035  0.75431130    -0.39000
C2391       C  0.77838012  0.91178439  0.78867251    -0.11300
C2392       C  0.80714364  0.93085810  0.80136465     0.05700
C2393       C  0.81763235  0.92242503  0.83437478    -0.06600
C2394       C  0.80169630  0.89324076  0.84838808    -0.07400
C2395       C  0.77931539  0.87262058  0.82578722    -0.01900
C2396       C  0.76344829  0.88273724  0.80261539     0.04900
N2397       N  0.73663064  0.86259449  0.78445200     0.67400
H2398       H  0.76861731  0.91850445  0.76552086     0.16300
H2399       H  0.81210560  0.88585073  0.86996291     0.16000
N2400       N  0.84614533  0.94093494  0.85010462     0.75100
O2401       O  0.71274027  0.85930326  0.79561877    -0.38300
O2402       O  0.73755187  0.85566620  0.75185431    -0.38300
O2403       O  0.84807848  0.95261552  0.88040620    -0.39000
O2404       O  0.86696849  0.93721787  0.84153635    -0.39000
C2405       C  0.92259882  0.56841601  0.81482768    -0.11300
C2406       C  0.93440916  0.59861193  0.80812379     0.05700
C2407       C  0.92689355  0.60906795  0.77450273    -0.06600
C2408       C  0.90925913  0.58935014  0.74759032    -0.07400
C2409       C  0.89963294  0.55934117  0.75287088    -0.01900
C2410       C  0.90605993  0.54881003  0.78739293     0.04900
N2411       N  0.89799322  0.51876285  0.79448642     0.67400
H2412       H  0.92863919  0.56004984  0.84015620     0.16300
H2413       H  0.90394041  0.59785619  0.72184688     0.16000
N2414       N  0.93740569  0.63957436  0.76664971     0.75100
O2415       O  0.91650251  0.51104502  0.78825739    -0.38300
O2416       O  0.87771170  0.50324031  0.81707439    -0.38300
O2417       O  0.95800906  0.65343537  0.74392609    -0.39000
O2418       O  0.92065831  0.64956212  0.77238596    -0.39000
C2419       C  0.96082721  0.99855407  0.62349008    -0.11300
C2420       C  0.98336132  0.00152509  0.64976485     0.05700
C2421       C  0.94928500  0.50030775  0.57807041    -0.06600
C2422       C  0.92695762  0.50026363  0.59836927    -0.07400
C2423       C  0.93227630  0.00707924  0.66957686    -0.01900
C2424       C  0.93557844  0.00038421  0.63294574     0.04900
N2425       N  0.91358521  0.99488757  0.60455815     0.67400
H2426       H  0.96188498  0.99394724  0.59515371     0.16300
H2427       H  0.92939497  0.50021163  0.62853148     0.16000
N2428       N  0.97374385  0.50159235  0.59944414     0.75100
O2429       O  0.91823138  0.01495434  0.58005686    -0.38300
O2430       O  0.89582204  0.96864716  0.59689967    -0.38300
O2431       O  0.99278231  0.52588118  0.61209356    -0.39000
O2432       O  0.98712998  0.98567121  0.73902874    -0.39000
loop_ 
_geom_bond_atom_site_label_1 
_geom_bond_atom_site_label_2 
_geom_bond_distance 
_geom_bond_site_symmetry_2 
_ccdc_geom_bond_type 
O1            C4   1.267       .  A
O1         Cd614   2.507       .  S
C2           O11   1.271       .  A
C2            O7   1.266       .  A
C2          C281   1.476       .  S
O3          C617   1.280       .  A
O3           Cd6   2.695       .  S
C4           O12   1.268       .  A
C4          C264   1.478       .  S
C5          O618   1.270       .  A
C5          O616   1.271   1_565  A
C5          C253   1.527       .  S
Cd6          O13   2.481       .  S
Cd6          O11   2.478   1_565  S
Cd6           O7   2.356   1_565  S
Cd6         O609   2.357       .  S
Cd6         O620   2.485       .  S
Cd6         O618   2.535       .  S
Cd6         O616   2.553   1_565  S
O8          C613   1.269       .  A
O8         Cd614   2.502       .  S
C9          O611   1.275       .  A
C9          O621   1.266       .  A
C9          C295   1.538       .  S
O10         C613   1.269       .  A
O10        Cd614   2.534       .  S
O12        Cd614   2.401       .  S
O13         C617   1.264       .  A
O14          C17   1.265       .  A
O14       Cd1235   2.371       .  S
C15          O24   1.269       .  A
C15          O20   1.260       .  A
C15         C278   1.449       .  S
O16        C1238   1.267       .  A
O16         Cd19   2.524       .  S
C17          O25   1.269       .  A
C17         C225   1.464       .  S
C18          O23   1.267       .  A
C18          O21   1.267       .  A
C18         C208   1.501       .  S
Cd19         O26   2.520       .  S
Cd19         O24   2.491       .  S
Cd19         O20   2.345       .  S
Cd19         O23   2.470       .  S
Cd19         O21   2.523       .  S
Cd19       O1230   2.402       .  S
Cd19       O1241   2.462       .  S
C22        O1232   1.267   1_455  A
C22        O1242   1.262       .  A
C22         C236   1.503       .  S
O25       Cd1235   2.472       .  S
O26        C1238   1.263       .  A
O27          C30   1.276       .  A
O27         Cd32   2.360       .  S
C28          O37   1.264       .  A
C28          O33   1.269       .  A
C28         C180   1.470       .  S
O29          C35   1.287       .  A
O29         Cd32   2.495       .  S
C30          O38   1.277       .  A
C30         C169   1.479       .  S
C31          O36   1.281       .  A
C31          O34   1.274       .  A
C31         C197   1.520       .  S
Cd32         O39   2.406       .  S
Cd32         O38   2.450       .  S
Cd32         O36   2.564       .  S
Cd32         O34   2.522       .  S
Cd32       O1253   2.411       .  S
Cd32       O1249   2.377       .  S
O33       Cd1248   2.488       .  S
C35          O39   1.273       .  A
C35         C211   1.484       .  S
O37       Cd1248   2.398       .  S
O40          C43   1.263       .  A
O40         Cd45   2.375       .  S
C41          O50   1.269       .  A
C41          O46   1.265       .  A
C41         C152   1.454       .  S
O42          C48   1.263       .  A
O42         Cd45   2.505       .  S
C43          O51   1.268       .  A
C43         C222   1.457       .  S
C44          O49   1.265       .  A
C44          O47   1.266       .  A
C44         C124   1.506       .  S
Cd45         O52   2.562       .  S
Cd45         O51   2.451       .  S
Cd45         O50   2.436       .  S
Cd45         O46   2.386       .  S
Cd45         O49   2.478       .  S
Cd45         O47   2.553       .  S
C48          O52   1.268       .  A
C48         C141   1.506       .  S
O53          C56   1.262       .  A
O53         Cd58   2.376   1_545  S
C54          O63   1.264       .  A
C54          O59   1.269       .  A
C54         C183   1.465       .  S
O55          C61   1.267       .  A
O55         Cd58   2.540       .  S
C56          O64   1.273       .  A
C56         C155   1.472       .  S
C57         O670   1.261       .  A
C57         O668   1.271       .  A
C57         C110   1.517       .  S
Cd58         O65   2.555   1_565  S
Cd58         O64   2.503   1_565  S
Cd58         O62   2.673       .  S
Cd58         O60   2.523   1_565  S
Cd58        O671   2.485       .  S
Cd58        O667   2.337       .  S
O59        Cd666   2.378       .  S
O60         C665   1.261   1_545  A
C61          O65   1.275   1_565  A
C61         C250   1.528       .  S
O62         C665   1.277       .  A
O63        Cd666   2.474       .  S
C66          C96   1.608       .  S
C66         C194   1.624       .  S
C66         C292   1.619       .  S
C66        C1962   1.608       .  S
C67          C99   1.611       .  S
C67         C113   1.623   1_655  S
C67        C1301   1.604       .  S
C67         C847   1.610       .  S
O68          C71   1.266       .  A
O68         Cd73   2.347       .  S
C69          O78   1.268       .  A
C69          O74   1.268       .  A
C69         C166   1.467       .  S
O70          C76   1.274       .  A
O70         Cd73   2.597       .  S
C71          O79   1.269       .  A
C71         C267   1.461       .  S
C72          O77   1.265       .  A
C72          O75   1.275       .  A
C72         C127   1.499       .  S
Cd73         O80   2.484       .  S
Cd73         O79   2.470       .  S
Cd73         O78   2.487       .  S
Cd73         O74   2.364       .  S
Cd73         O77   2.466       .  S
Cd73         O75   2.557       .  S
C76          O80   1.262       .  A
C76          C82   1.511       .  S
C81          C82   1.403       .  A
C81          C86   1.415       .  A
C81          H88   1.084       .  S
C82          C83   1.408       .  A
C83          C84   1.413       .  A
C83          N90   1.427       .  S
C84          C85   1.424       .  A
C84          H89   1.075       .  S
C85        C1283   1.605       .  S
C85          C86   1.441       .  A
C86          N87   1.430       .  S
N87          O91   1.261       .  A
N87          O92   1.263       .  A
N90          O94   1.261       .  A
N90          O93   1.261       .  A
C95          C96   1.424       .  A
C95         C404   1.428       .  A
C95         H102   1.084       .  S
C96        C1921   1.438       .  A
C97        C1920   1.444   1_455  A
C97         C402   1.417       .  A
C97         N104   1.432       .  S
C98         C401   1.415       .  A
C98         C707   1.408   1_545  A
C98         H103   1.083       .  S
C99         C706   1.404       .  A
C99        C1316   1.442       .  A
C100        C399   1.432       .  A
C100       C1315   1.429       .  A
C100        N101   1.430       .  S
N101        O105   1.261       .  A
N101        O106   1.260       .  A
N104        O108   1.263       .  A
N104        O715   1.261       .  A
O107        N712   1.261       .  A
C109        C110   1.400       .  A
C109        C114   1.413       .  A
C109        H116   1.083       .  S
C110        C719   1.406       .  A
C111        C112   1.403       .  A
C111        C718   1.416       .  A
C111        N118   1.428       .  S
C112        C721   1.418       .  A
C112        H117   1.084       .  S
C113        C114   1.447       .  A
C113        C720   1.429       .  A
C114        N115   1.425       .  S
N115        O119   1.262       .  A
N115        O120   1.261       .  A
N118        O122   1.262   1_565  A
N118        O121   1.262       .  A
C123        C124   1.407       .  A
C123        C128   1.404       .  A
C123        H130   1.084       .  S
C124        C125   1.420       .  A
C125        C126   1.415       .  A
C125        N132   1.427       .  S
C126        C127   1.405       .  A
C126        H131   1.084       .  S
C127        C128   1.413       .  A
C128        N129   1.428       .  S
N129        O133   1.262       .  A
N129        O134   1.262       .  A
N132        O136   1.262       .  A
N132        O135   1.262       .  A
C137        C138   1.405       .  A
C137        C142   1.406       .  A
C137        H144   1.076       .  S
C138       C1890   1.585   1_455  S
C138        C139   1.439       .  A
C139        C140   1.417       .  A
C139        N146   1.431   1_455  S
C140        C141   1.404       .  A
C140        H145   1.084       .  S
C141        C142   1.414       .  A
C142        N143   1.430       .  S
N143        O147   1.262       .  A
N143        O148   1.262       .  A
N146        O150   1.261   1_554  A
N146        O149   1.262       .  A
C151        C152   1.390       .  A
C151        C156   1.391       .  A
C151        H158   1.085       .  S
C152        C153   1.405       .  A
C153        C154   1.402       .  A
C153        N160   1.430       .  S
C154        C155   1.405       .  A
C154        H159   1.083       .  S
C155        C156   1.418       .  A
C156        N157   1.429       .  S
N157        O161   1.261       .  A
N157        O162   1.262       .  A
N160        O164   1.262       .  A
N160        O163   1.262       .  A
C165        C166   1.402       .  A
C165        C170   1.402       .  A
C165        H172   1.084       .  S
C166        C167   1.407       .  A
C167        C168   1.395       .  A
C167        N174   1.429       .  S
C168        C169   1.405       .  A
C168        H173   1.084       .  S
C169        C170   1.416       .  A
C170        N171   1.427       .  S
N171        O175   1.262       .  A
N171        O176   1.262       .  A
N174        O178   1.262       .  A
N174        O177   1.262       .  A
C179        C180   1.399       .  A
C179        C184   1.401       .  A
C179        H186   1.084       .  S
C180        C181   1.415       .  A
C181        C182   1.397       .  A
C181        N188   1.427       .  S
C182        C183   1.397       .  A
C182        H187   1.084       .  S
C183        C184   1.412       .  A
C184        N185   1.428       .  S
N185        O189   1.262       .  A
N185        O190   1.262       .  A
N188        O192   1.262       .  A
N188        O191   1.262       .  A
C193        C194   1.421       .  A
C193        C198   1.411       .  A
C193        H200   1.075       .  S
C194       C1411   1.450       .  A
C195        C196   1.420       .  A
C195       C1410   1.439       .  A
C195        N202   1.426       .  S
C196       C1413   1.402       .  A
C196        H201   1.084       .  S
C197        C198   1.408       .  A
C197       C1412   1.403       .  A
C198        N199   1.425       .  S
N199        O203   1.261       .  A
N199        O204   1.262       .  A
N202        O206   1.262       .  A
N202       O1421   1.262       .  A
O205       N1418   1.262       .  A
C207        C212   1.410       .  A
C207       C1424   1.410       .  A
C207        H214   1.084       .  S
C208        C209   1.420       .  A
C208       C1423   1.409       .  A
C209        C210   1.408       .  A
C209        N216   1.428       .  S
C210        C211   1.402       .  A
C210        H215   1.084       .  S
C211       C1428   1.408       .  A
C212       C1427   1.413       .  A
C212        N213   1.427       .  S
N213        O217   1.261       .  A
N213        O218   1.262       .  A
N216        O220   1.262       .  A
N216        O219   1.262       .  A
C221        C222   1.400       .  A
C221        C226   1.393       .  A
C221        H228   1.084       .  S
C222        C223   1.402       .  A
C223        C224   1.392       .  A
C223        N230   1.429       .  S
C224        C225   1.407       .  A
C224        H229   1.084       .  S
C225        C226   1.409       .  A
C226        N227   1.428       .  S
N227        O231   1.262       .  A
N227        O232   1.262       .  A
N230        O234   1.262       .  A
N230        O233   1.262       .  A
C235        C240   1.412       .  A
C235       C1452   1.399       .  A
C235        H242   1.084       .  S
C236        C237   1.411       .  A
C236       C1451   1.400   1_455  A
C237        C238   1.401       .  A
C237        N244   1.428       .  S
C238        C239   1.420       .  A
C238        H243   1.079       .  S
C239        C675   1.607   1_545  S
C239       C1456   1.441   1_455  A
C240       C1455   1.444       .  A
C240        N241   1.429       .  S
N241        O245   1.259       .  A
N241        O246   1.263   1_545  A
N244        O248   1.262       .  A
N244        O247   1.262       .  A
C249        C250   1.415       .  A
C249        C254   1.421       .  A
C249        H256   1.083       .  S
C250        C251   1.418   1_565  A
C251        C252   1.420       .  A
C251        N258   1.428       .  S
C252        C253   1.413   1_545  A
C252        H865   1.083       .  S
C253        C254   1.420       .  A
C254        N255   1.429       .  S
N255        O259   1.262       .  A
N255        O868   1.262       .  A
H257        C860   1.084       .  S
N258        O870   1.262       .  A
N258        O261   1.262       .  A
O260        N863   1.262       .  A
O262        N866   1.262       .  A
C263        C264   1.402       .  A
C263        C268   1.393       .  A
C263        H270   1.082       .  S
C264        C265   1.414       .  A
C265        C266   1.404       .  A
C265        N272   1.424       .  S
C266        C267   1.400       .  A
C266        H271   1.085       .  S
C267        C268   1.403       .  A
C268        N269   1.426       .  S
N269        O273   1.262       .  A
N269        O274   1.261       .  A
N272        O276   1.260       .  A
N272        O275   1.262       .  A
C277        C278   1.400       .  A
C277        C282   1.400       .  A
C277        H284   1.085       .  S
C278        C279   1.401       .  A
C279        C280   1.388       .  A
C279        N286   1.429       .  S
C280        C281   1.406       .  A
C280        H285   1.084       .  S
C281        C282   1.415       .  A
C282        N283   1.428       .  S
N283        O287   1.262       .  A
N283        O288   1.262       .  A
N286        O290   1.262       .  A
N286        O289   1.262       .  A
C291        C292   1.422       .  A
C291        C296   1.430       .  A
C291        H298   1.076       .  S
C292        C901   1.440       .  A
C293        C294   1.411       .  A
C293        C900   1.439       .  A
C293        N300   1.431       .  S
C294        C903   1.406       .  A
C294        H299   1.084       .  S
C295        C296   1.422       .  A
C295        C902   1.402       .  A
C296        N297   1.425       .  S
N297        O301   1.261       .  A
N297        O302   1.262       .  A
N300        O912   1.262       .  A
N300        O303   1.263   1_565  A
O304        N908   1.258       .  A
O305        C308   1.265       .  A
O305       Cd918   2.349       .  S
C306        O315   1.270       .  A
C306        O311   1.268       .  A
C306        C585   1.472       .  S
O307        C921   1.273       .  A
O307       Cd310   2.703       .  S
C308        O316   1.270       .  A
C308        C568   1.445       .  S
C309        O922   1.270       .  A
C309        O920   1.270       .  A
C309        C557   1.515       .  S
Cd310       O913   2.495   1_545  S
Cd310       O317   2.551       .  S
Cd310       O924   2.390   1_545  S
Cd310       O315   2.448       .  S
Cd310       O311   2.434       .  S
Cd310       O922   2.530       .  S
Cd310       O920   2.525       .  S
O312        C917   1.266       .  A
O312       Cd918   2.538       .  S
C313        O915   1.281       .  A
C313        O925   1.265       .  A
C313        C599   1.539       .  S
O314        C917   1.277       .  A
O314       Cd918   2.579       .  S
O316       Cd918   2.426       .  S
O317        C921   1.267       .  A
O318        C321   1.264       .  A
O318      Cd1539   2.360   1_455  S
C319        O328   1.266       .  A
C319        O324   1.267       .  A
C319        C582   1.474       .  S
O320       C1542   1.271       .  A
O320       Cd323   2.574       .  S
C321        O329   1.271       .  A
C321        C529   1.465       .  S
C322        O327   1.273       .  A
C322        O325   1.266       .  A
C322        C512   1.506       .  S
Cd323      O1534   2.410       .  S
Cd323       O330   2.553       .  S
Cd323      O1545   2.472       .  S
Cd323       O328   2.508       .  S
Cd323       O324   2.387       .  S
Cd323       O327   2.589       .  S
Cd323       O325   2.474       .  S
C326       O1536   1.265   1_655  A
C326       O1546   1.270       .  A
C326        C540   1.524       .  S
O329      Cd1539   2.460   1_455  S
O330       C1542   1.263       .  A
O331        C334   1.260       .  A
O331       Cd336   2.418       .  S
C332        O341   1.271       .  A
C332        O337   1.261       .  A
C332        C484   1.463       .  S
O333        C339   1.266       .  A
O333       Cd336   2.521       .  S
C334        O342   1.268       .  A
C334        C473   1.464       .  S
C335        O340   1.271       .  A
C335        O338   1.265       .  A
C335        C501   1.517       .  S
Cd336       O343   2.530       .  S
Cd336       O342   2.432       .  S
Cd336      O1557   2.491       .  S
Cd336      O1553   2.362       .  S
Cd336       O340   2.539       .  S
Cd336       O338   2.553       .  S
O337      Cd1552   2.385   1_455  S
C339        O343   1.267       .  A
C339        C515   1.507       .  S
O341      Cd1552   2.494   1_455  S
O344        C347   1.270       .  A
O344       Cd349   2.432       .  S
C345        O354   1.264       .  A
C345        O350   1.267       .  A
C345        C456   1.461       .  S
O346        C352   1.265       .  A
O346       Cd349   2.578       .  S
C347        O355   1.269       .  A
C347        C526   1.472       .  S
C348        O353   1.265       .  A
C348        O351   1.266       .  A
C348        C428   1.494       .  S
Cd349       O356   2.547       .  S
Cd349       O355   2.395       .  S
Cd349       O354   2.347       .  S
Cd349       O350   2.490       .  S
Cd349       O353   2.519       .  S
Cd349       O351   2.473       .  S
C352        O356   1.264       .  A
C352        C445   1.516       .  S
O357        C360   1.269       .  A
O357       Cd362   2.396       .  S
C358        O367   1.271       .  A
C358        O363   1.264       .  A
C358        C487   1.473       .  S
O359        C365   1.266       .  A
O359       Cd362   2.502       .  S
C360        O368   1.265       .  A
C360        C459   1.464       .  S
C361        O974   1.263       .  A
C361        O972   1.281       .  A
C361        C414   1.545       .  S
Cd362       O369   2.589       .  S
Cd362       O368   2.477       .  S
Cd362       O975   2.493   1_545  S
Cd362       O971   2.375   1_545  S
Cd362       O366   2.476   1_545  S
Cd362       O364   2.666       .  S
O363       Cd970   2.408       .  S
O364        C969   1.273   1_545  A
C365        O369   1.271       .  A
C365        C554   1.520       .  S
O366        C969   1.260       .  A
O367       Cd970   2.435       .  S
C370        C400   1.612       .  S
C370       C2266   1.589       .  S
C370        C498   1.613       .  S
C370        C596   1.605       .  S
C371       C1605   1.595   1_455  S
C371        C403   1.596   1_556  S
C371        C417   1.611       .  S
C371       C1151   1.610       .  S
O372        C375   1.265       .  A
O372       Cd377   2.420       .  S
C373        O382   1.269       .  A
C373        O378   1.265       .  A
C373        C470   1.446       .  S
O374        C380   1.271       .  A
O374       Cd377   2.542       .  S
C375        O383   1.268       .  A
C375        C571   1.465       .  S
C376        O381   1.272       .  A
C376        O379   1.261       .  A
C376        C431   1.499       .  S
Cd377       O384   2.498       .  S
Cd377       O383   2.388       .  S
Cd377       O382   2.446       .  S
Cd377       O378   2.343       .  S
Cd377       O381   2.543       .  S
Cd377       O379   2.432       .  S
C380        O384   1.262       .  A
C380        C386   1.508       .  S
C385        C386   1.403       .  A
C385        C390   1.413       .  A
C385        H392   1.084       .  S
C386        C387   1.416       .  A
C387        C388   1.405       .  A
C387        N394   1.429       .  S
C388        C389   1.415       .  A
C388        H393   1.076       .  S
C389       C1587   1.589       .  S
C389        C390   1.437       .  A
C390        N391   1.430       .  S
N391        O395   1.261       .  A
N391        O396   1.263       .  A
N394        O398   1.262       .  A
N394        O397   1.262       .  A
C399        C400   1.426       .  A
C399        H406   1.083       .  S
C400       C2225   1.441       .  A
C401       C2224   1.443   1_545  A
C401        N408   1.428       .  S
C402       C1011   1.411   1_455  A
C402        H407   1.084       .  S
C403       C1010   1.410       .  A
C403       C1620   1.436   1_455  A
C404       C1619   1.438       .  A
C404        N405   1.432       .  S
N405        O409   1.261       .  A
N405        O410   1.261       .  A
N408        O412   1.261       .  A
N408       O1019   1.262       .  A
O411       N1016   1.262   1_455  A
C413        C414   1.418       .  A
C413        C418   1.440       .  A
C413        H420   1.083       .  S
C414       C1023   1.420       .  A
C415       C1022   1.409       .  A
C415        C416   1.419       .  A
C415        N422   1.412   1_565  S
C416       C1025   1.408       .  A
C416        H421   1.055   1_565  S
C417       C1024   1.417       .  A
C417        C418   1.441       .  A
C418        N419   1.430       .  S
N419        O423   1.261   1_556  A
N419        O424   1.262   1_556  A
N422        O426   1.256       .  A
N422        O425   1.262   1_545  A
C427        C428   1.407       .  A
C427        C432   1.406       .  A
C427        H434   1.084       .  S
C428        C429   1.411       .  A
C429        C430   1.407       .  A
C429        N436   1.428       .  S
C430        C431   1.411       .  A
C430        H435   1.084       .  S
C431        C432   1.415       .  A
C432        N433   1.428       .  S
N433        O437   1.262       .  A
N433        O438   1.262       .  A
N436        O440   1.262       .  A
N436        O439   1.262       .  A
C441        C442   1.417       .  A
C441        C446   1.411       .  A
C441        H448   1.064       .  S
C442       C2194   1.601   1_545  S
C442        C443   1.444       .  A
C443        C444   1.418       .  A
C443        N450   1.432       .  S
C444        C445   1.405       .  A
C444        H449   1.084       .  S
C445        C446   1.410       .  A
C446        N447   1.430       .  S
N447        O451   1.261       .  A
N447        O452   1.261       .  A
N450        O454   1.261       .  A
N450        O453   1.262       .  A
C455        C456   1.400       .  A
C455        C460   1.392       .  A
C455        H462   1.085       .  S
C456        C457   1.403       .  A
C457        C458   1.404       .  A
C457        N464   1.429       .  S
C458        C459   1.409       .  A
C458        H463   1.084       .  S
C459        C460   1.407       .  A
C460        N461   1.428       .  S
N461        O465   1.262       .  A
N461        O466   1.262       .  A
N464        O468   1.262       .  A
N464        O467   1.262       .  A
C469        C470   1.394       .  A
C469        C474   1.392       .  A
C469        H476   1.085       .  S
C470        C471   1.405       .  A
C471        C472   1.391       .  A
C471        N478   1.429       .  S
C472        C473   1.400       .  A
C472        H477   1.084       .  S
C473        C474   1.415       .  A
C474        N475   1.429       .  S
N475        O479   1.262       .  A
N475        O480   1.262       .  A
N478        O482   1.262       .  A
N478        O481   1.262       .  A
C483        C484   1.397       .  A
C483        C488   1.397       .  A
C483        H490   1.084       .  S
C484        C485   1.411       .  A
C485        C486   1.393       .  A
C485        N492   1.429       .  S
C486        C487   1.399       .  A
C486        H491   1.084       .  S
C487        C488   1.418       .  A
C488        N489   1.429       .  S
N489        O493   1.262       .  A
N489        O494   1.262       .  A
N492        O496   1.262       .  A
N492        O495   1.262       .  A
C497        C498   1.425       .  A
C497        C502   1.415       .  A
C497        H504   1.079       .  S
C498       C1715   1.443       .  A
C499       C1714   1.446       .  A
C499        C500   1.417       .  A
C499        N506   1.429   1_655  S
C500       C1717   1.399       .  A
C500        H505   1.084   1_655  S
C501       C1716   1.395       .  A
C501        C502   1.412       .  A
C502        N503   1.426       .  S
N503        O507   1.262       .  A
N503        O508   1.262       .  A
N506        O510   1.261       .  A
N506       O1725   1.262       .  A
O509       N1722   1.261       .  A
C511       C1728   1.403       .  A
C511        C516   1.411       .  A
C511        H518   1.084       .  S
C512       C1727   1.403       .  A
C512        C513   1.417       .  A
C513        C514   1.416       .  A
C513        N520   1.425       .  S
C514        C515   1.408       .  A
C514        H519   1.084       .  S
C515       C1732   1.418       .  A
C516       C1731   1.422       .  A
C516        N517   1.428       .  S
N517        O521   1.262       .  A
N517        O522   1.262       .  A
N520        O524   1.259       .  A
N520        O523   1.262       .  A
C525        C526   1.398       .  A
C525        C530   1.391       .  A
C525        H532   1.084       .  S
C526        C527   1.409       .  A
C527        C528   1.400       .  A
C527        N534   1.429       .  S
C528        C529   1.405       .  A
C528        H533   1.084       .  S
C529        C530   1.413       .  A
C530        N531   1.429       .  S
N531        O535   1.262       .  A
N531        O536   1.262       .  A
N534        O538   1.262       .  A
N534        O537   1.262       .  A
C539       C1756   1.400       .  A
C539        C544   1.415       .  A
C539        H546   1.084       .  S
C540       C1755   1.401       .  A
C540        C541   1.416   1_655  A
C541        C542   1.419       .  A
C541        N548   1.426       .  S
C542        C543   1.422   1_455  A
C542        H547   1.079       .  S
C543        C979   1.618   1_545  S
C543       C1760   1.441       .  A
C544       C1759   1.441       .  A
C544        N545   1.428       .  S
N545        O549   1.263       .  A
N545        O550   1.262   1_545  A
N548        O552   1.261       .  A
N548        O551   1.261       .  A
C553        C554   1.413       .  A
C553        C558   1.420       .  A
C553        H560   1.083   1_545  S
C554        C555   1.420       .  A
C555        C556   1.413       .  A
C555        N562   1.430       .  S
C556        C557   1.407       .  A
C556       H1169   1.080       .  S
C557        C558   1.414       .  A
C558        N559   1.428   1_545  S
N559        O563   1.262       .  A
N559       O1172   1.262       .  A
H561       C1164   1.083       .  S
N562       O1174   1.262       .  A
N562        O565   1.262       .  A
O564       N1167   1.262       .  A
O566       N1170   1.262       .  A
C567        C568   1.395       .  A
C567        C572   1.395       .  A
C567        H574   1.085       .  S
C568        C569   1.404       .  A
C569        C570   1.387       .  A
C569        N576   1.429       .  S
C570        C571   1.401       .  A
C570        H575   1.084       .  S
C571        C572   1.416       .  A
C572        N573   1.429       .  S
N573        O577   1.262       .  A
N573        O578   1.262       .  A
N576        O580   1.262       .  A
N576        O579   1.262       .  A
C581        C582   1.402       .  A
C581        C586   1.402       .  A
C581        H588   1.084       .  S
C582        C583   1.411       .  A
C583        C584   1.400       .  A
C583        N590   1.427       .  S
C584        C585   1.401       .  A
C584        H589   1.084       .  S
C585        C586   1.415       .  A
C586        N587   1.427       .  S
N587        O591   1.262       .  A
N587        O592   1.262       .  A
N590        O594   1.262       .  A
N590        O593   1.262       .  A
C595        C596   1.421       .  A
C595        C600   1.430       .  A
C595        H602   1.079       .  S
C596       C1205   1.439       .  A
C597       C1204   1.440       .  A
C597        C598   1.416       .  A
C597        N604   1.418       .  S
C598       C1207   1.399       .  A
C598        H603   1.085       .  S
C599       C1206   1.407       .  A
C599        C600   1.422       .  A
C600        N601   1.425       .  S
N601        O605   1.262       .  A
N601        O606   1.262       .  A
N604       O1216   1.257       .  A
N604        O607   1.260       .  A
O608       N1212   1.262       .  A
O609        C612   1.262       .  A
C610        O619   1.268       .  A
C610        O615   1.269       .  A
C610        C889   1.474       .  S
O611       Cd614   2.678       .  S
C612        O620   1.270       .  A
C612        C872   1.456       .  S
C613        C861   1.514       .  S
Cd614       O621   2.532       .  S
Cd614       O619   2.444       .  S
Cd614       O615   2.424       .  S
C617        C903   1.537       .  S
O622        C625   1.264       .  A
O622      Cd1843   2.358   1_455  S
C623        O632   1.267       .  A
C623        O628   1.268       .  A
C623        C886   1.469       .  S
O624       C1846   1.260       .  A
O624       Cd627   2.503       .  S
C625        O633   1.271       .  A
C625        C833   1.463       .  S
C626        O631   1.271       .  A
C626        O629   1.263       .  A
C626        C816   1.507       .  S
Cd627      O1838   2.349       .  S
Cd627       O634   2.636       .  S
Cd627      O1849   2.486       .  S
Cd627       O632   2.487       .  S
Cd627       O628   2.376       .  S
Cd627       O631   2.570       .  S
Cd627       O629   2.525       .  S
C630       O1840   1.271       .  A
C630       O1850   1.263   1_655  A
C630        C844   1.512       .  S
O633      Cd1843   2.458   1_455  S
O634       C1846   1.271       .  A
O635        C638   1.265       .  A
O635       Cd640   2.364       .  S
C636        O645   1.267       .  A
C636        O641   1.262       .  A
C636        C788   1.454       .  S
O637        C643   1.267       .  A
O637       Cd640   2.546       .  S
C638        O646   1.269       .  A
C638        C777   1.463       .  S
C639        O644   1.272       .  A
C639        O642   1.264       .  A
C639        C805   1.509       .  S
Cd640       O647   2.510       .  S
Cd640       O646   2.437       .  S
Cd640      O1861   2.494       .  S
Cd640      O1857   2.417       .  S
Cd640       O644   2.527       .  S
Cd640       O642   2.505       .  S
O641      Cd1856   2.395   1_455  S
C643        O647   1.269       .  A
C643        C819   1.513       .  S
O645      Cd1856   2.471   1_455  S
O648        C651   1.270       .  A
O648       Cd653   2.435       .  S
C649        O658   1.268       .  A
C649        O654   1.270       .  A
C649        C760   1.467       .  S
O650        C656   1.273       .  A
O650       Cd653   2.604       .  S
C651        O659   1.266       .  A
C651        C830   1.469       .  S
C652        O657   1.266       .  A
C652        O655   1.270       .  A
C652        C732   1.499       .  S
Cd653       O660   2.542       .  S
Cd653       O659   2.380       .  S
Cd653       O658   2.375       .  S
Cd653       O654   2.451       .  S
Cd653       O657   2.507       .  S
Cd653       O655   2.484       .  S
C656        O660   1.264       .  A
C656        C749   1.519       .  S
O661        C664   1.267       .  A
O661       Cd666   2.400       .  S
C662        O671   1.270       .  A
C662        O667   1.263       .  A
C662        C791   1.472       .  S
O663        C669   1.266       .  A
O663       Cd666   2.543       .  S
C664        O672   1.266       .  A
C664        C763   1.467       .  S
C665        C718   1.532       .  S
Cd666       O673   2.549       .  S
Cd666       O672   2.494       .  S
Cd666       O670   2.481       .  S
Cd666       O668   2.626       .  S
C669        O673   1.270       .  A
C669        C858   1.507       .  S
C674        C704   1.614   1_554  S
C674       C1354   1.583   1_565  S
C674        C802   1.609       .  S
C674        C900   1.608       .  S
C675       C1909   1.592   1_455  S
C675        C707   1.594       .  S
C675        C721   1.607       .  S
O676        C679   1.268       .  A
O676       Cd681   2.461       .  S
C677        O686   1.268       .  A
C677        O682   1.266       .  A
C677        C774   1.457       .  S
O678        C684   1.262       .  A
O678       Cd681   2.521       .  S
C679        O687   1.268       .  A
C679        C875   1.470       .  S
C680        O685   1.265       .  A
C680        O683   1.267       .  A
C680        C735   1.495       .  S
Cd681       O688   2.551       .  S
Cd681       O687   2.396       .  S
Cd681       O686   2.473       .  S
Cd681       O682   2.348       .  S
Cd681       O685   2.455       .  S
Cd681       O683   2.514       .  S
C684        O688   1.268       .  A
C684        C690   1.509       .  S
C689        C690   1.401       .  A
C689        C694   1.414       .  A
C689        H696   1.084       .  S
C690        C691   1.413       .  A
C691        C692   1.404       .  A
C691        N698   1.428       .  S
C692        C693   1.414       .  A
C692        H697   1.074       .  S
C693       C1891   1.595       .  S
C693        C694   1.443       .  A
C694        N695   1.430       .  S
N695        O699   1.261       .  A
N695        O700   1.263       .  A
N698        O702   1.262       .  A
N698        O701   1.262       .  A
C703        C704   1.432       .  A
C703       C1012   1.434       .  A
C703        H710   1.082       .  S
C704       C1313   1.439   1_565  A
C705       C1312   1.444       .  A
C705       C1010   1.420       .  A
C705        N712   1.431       .  S
C706       C1009   1.408       .  A
C706        H711   1.079       .  S
C707       C1924   1.437   1_455  A
C708       C1007   1.423       .  A
C708       C1923   1.430       .  A
C708        N709   1.430       .  S
N709        O713   1.261       .  A
N709        O714   1.262       .  A
N712        O716   1.261       .  A
C717        C718   1.414       .  A
C717        C722   1.437       .  A
C717        H724   1.083       .  S
C719        C720   1.413       .  A
C719        N726   1.426       .  S
C720        H725   1.074   1_455  S
C721        C722   1.440       .  A
C722        N723   1.427       .  S
N723        O727   1.262   1_565  A
N723        O728   1.262       .  A
N726        O730   1.260       .  A
N726        O729   1.261       .  A
C731        C732   1.409       .  A
C731        C736   1.407       .  A
C731        H738   1.082       .  S
C732        C733   1.415       .  A
C733        C734   1.407       .  A
C733        N740   1.429       .  S
C734        C735   1.409       .  A
C734        H739   1.084       .  S
C735        C736   1.411       .  A
C736        N737   1.427       .  S
N737        O741   1.262       .  A
N737        O742   1.262       .  A
N740        O744   1.262       .  A
N740        O743   1.262       .  A
C745        C746   1.416       .  A
C745        C750   1.410       .  A
C745        H752   1.072       .  S
C746       C1282   1.597       .  S
C746        C747   1.441       .  A
C747        C748   1.423       .  A
C747        N754   1.433       .  S
C748        C749   1.405       .  A
C748        H753   1.084       .  S
C749        C750   1.412       .  A
C750        N751   1.426       .  S
N751        O755   1.261       .  A
N751        O756   1.262       .  A
N754        O758   1.261       .  A
N754        O757   1.262       .  A
C759        C760   1.400       .  A
C759        C764   1.394       .  A
C759        H766   1.083       .  S
C760        C761   1.407       .  A
C761        C762   1.403       .  A
C761        N768   1.428       .  S
C762        C763   1.407       .  A
C762        H767   1.085       .  S
C763        C764   1.408       .  A
C764        N765   1.427       .  S
N765        O769   1.261       .  A
N765        O770   1.262       .  A
N768        O772   1.262       .  A
N768        O771   1.262       .  A
C773        C774   1.400       .  A
C773        C778   1.388       .  A
C773        H780   1.085       .  S
C774        C775   1.404       .  A
C775        C776   1.395       .  A
C775        N782   1.427       .  S
C776        C777   1.406       .  A
C776        H781   1.084       .  S
C777        C778   1.408       .  A
C778        N779   1.428       .  S
N779        O783   1.262       .  A
N779        O784   1.262       .  A
N782        O786   1.262       .  A
N782        O785   1.262       .  A
C787        C788   1.401       .  A
C787        C792   1.399       .  A
C787        H794   1.084       .  S
C788        C789   1.402       .  A
C789        C790   1.387       .  A
C789        N796   1.429       .  S
C790        C791   1.405       .  A
C790        H795   1.083       .  S
C791        C792   1.413       .  A
C792        N793   1.428       .  S
N793        O797   1.262       .  A
N793        O798   1.262       .  A
N796        O800   1.262       .  A
N796        O799   1.262       .  A
C801        C802   1.423       .  A
C801        C806   1.407       .  A
C801        H808   1.080       .  S
C802       C2019   1.458       .  A
C803       C2018   1.449   1_455  A
C803        C804   1.412       .  A
C803        N810   1.428       .  S
C804       C2021   1.393   1_455  A
C804        H809   1.085       .  S
C805       C2020   1.397       .  A
C805        C806   1.410       .  A
C806        N807   1.428       .  S
N807        O811   1.262       .  A
N807        O812   1.262       .  A
N810        O814   1.254   1_554  A
N810       O2029   1.261   1_565  A
O813       N2026   1.262       .  A
C815       C2032   1.400       .  A
C815        C820   1.405       .  A
C815        H822   1.084       .  S
C816       C2031   1.406       .  A
C816        C817   1.417       .  A
C817        C818   1.409       .  A
C817        N824   1.427       .  S
C818        C819   1.407       .  A
C818        H823   1.084       .  S
C819       C2036   1.423       .  A
C820       C2035   1.420       .  A
C820        N821   1.428       .  S
N821        O825   1.261       .  A
N821        O826   1.262       .  A
N824        O828   1.261       .  A
N824        O827   1.262       .  A
C829        C830   1.398       .  A
C829        C834   1.389       .  A
C829        H836   1.084       .  S
C830        C831   1.408       .  A
C831        C832   1.399       .  A
C831        N838   1.429       .  S
C832        C833   1.405       .  A
C832        H837   1.084       .  S
C833        C834   1.413       .  A
C834        N835   1.430       .  S
N835        O839   1.262       .  A
N835        O840   1.262       .  A
N838        O842   1.262       .  A
N838        O841   1.262       .  A
C843       C2060   1.403       .  A
C843        C848   1.414       .  A
C843        H850   1.084       .  S
C844       C2059   1.399       .  A
C844        C845   1.411   1_655  A
C845        C846   1.412       .  A
C845        N852   1.427       .  S
C846        C847   1.423   1_455  A
C846        H851   1.077       .  S
C847       C2064   1.440       .  A
C848       C2063   1.439       .  A
C848        N849   1.427       .  S
N849        O853   1.262       .  A
N849        O854   1.262       .  A
N852        O856   1.261       .  A
N852        O855   1.262       .  A
C857        C858   1.406       .  A
C857        C862   1.416       .  A
C857        H864   1.083       .  S
C858        C859   1.412       .  A
C859        C860   1.413       .  A
C859        N866   1.426       .  S
C860        C861   1.411       .  A
C861        C862   1.417       .  A
C862        N863   1.428       .  S
N863        O867   1.261       .  A
N866        O869   1.261       .  A
C871        C872   1.398       .  A
C871        C876   1.398       .  A
C871        H878   1.084       .  S
C872        C873   1.408       .  A
C873        C874   1.389       .  A
C873        N880   1.430       .  S
C874        C875   1.400       .  A
C874        H879   1.084       .  S
C875        C876   1.415       .  A
C876        N877   1.428       .  S
N877        O881   1.262       .  A
N877        O882   1.262       .  A
N880        O884   1.262       .  A
N880        O883   1.262       .  A
C885        C886   1.402       .  A
C885        C890   1.400       .  A
C885        H892   1.084       .  S
C886        C887   1.411       .  A
C887        C888   1.397       .  A
C887        N894   1.428       .  S
C888        C889   1.402       .  A
C888        H893   1.084       .  S
C889        C890   1.415       .  A
C890        N891   1.429       .  S
N891        O895   1.262       .  A
N891        O896   1.262       .  A
N894        O898   1.262       .  A
N894        O897   1.262       .  A
C899        C900   1.422       .  A
C899        C904   1.429       .  A
C899        H906   1.080   1_564  S
C901        C902   1.413       .  A
C901        N908   1.423       .  S
C902        H907   1.084       .  S
C903        C904   1.421       .  A
C904        N905   1.425   1_565  S
N905        O909   1.262       .  A
N905        O910   1.262   1_545  A
N908        O911   1.261       .  A
O913        C916   1.265       .  A
C914        O923   1.272       .  A
C914        O919   1.263       .  A
C914       C1193   1.465       .  S
O915       Cd918   2.696       .  S
C916        O924   1.268       .  A
C916       C1176   1.473       .  S
C917       C1165   1.531       .  S
Cd918       O925   2.495       .  S
Cd918       O923   2.459       .  S
Cd918       O919   2.381       .  S
C921       C1207   1.545       .  S
O926        C929   1.263       .  A
O926      Cd2147   2.441       .  S
C927        O936   1.268       .  A
C927        O932   1.260       .  A
C927       C1190   1.471       .  S
O928       C2150   1.268       .  A
O928       Cd931   2.548       .  S
C929        O937   1.268       .  A
C929       C1137   1.478       .  S
C930        O935   1.260       .  A
C930        O933   1.270       .  A
C930       C1120   1.490       .  S
Cd931      O2142   2.382       .  S
Cd931       O938   2.519       .  S
Cd931      O2153   2.434       .  S
Cd931       O936   2.480       .  S
Cd931       O932   2.448       .  S
Cd931       O935   2.420       .  S
Cd931       O933   2.554       .  S
C934       O2144   1.268       .  A
C934       O2154   1.265       .  A
C934       C1148   1.508       .  S
O937      Cd2147   2.460       .  S
O938       C2150   1.262       .  A
O939        C942   1.275       .  A
O939       Cd944   2.385       .  S
C940        O949   1.270       .  A
C940        O945   1.277       .  A
C940       C1092   1.475       .  S
O941        C947   1.267       .  A
O941       Cd944   2.348       .  S
C942        O950   1.271       .  A
C942       C1081   1.471       .  S
C943        O948   1.279       .  A
C943        O946   1.271       .  A
C943       C1109   1.514       .  S
Cd944       O951   2.524       .  S
Cd944       O950   2.402       .  S
Cd944      O2165   2.396       .  S
Cd944      O2161   2.436       .  S
Cd944       O948   2.542       .  S
Cd944       O946   2.514       .  S
O945      Cd2160   2.429       .  S
C947        O951   1.285       .  A
C947       C1123   1.492       .  S
O949      Cd2160   2.374       .  S
O952        C955   1.262       .  A
O952       Cd957   2.376       .  S
C953        O962   1.270       .  A
C953        O958   1.257       .  A
C953       C1064   1.464       .  S
O954        C960   1.267       .  A
O954       Cd957   2.536       .  S
C955        O963   1.268       .  A
C955       C1134   1.462       .  S
C956        O961   1.269       .  A
C956        O959   1.268       .  A
C956       C1036   1.511       .  S
Cd957       O964   2.521       .  S
Cd957       O963   2.479       .  S
Cd957       O962   2.468       .  S
Cd957       O958   2.384       .  S
Cd957       O961   2.488       .  S
Cd957       O959   2.548       .  S
C960        O964   1.269       .  A
C960       C1053   1.514       .  S
O965        C968   1.264       .  A
O965       Cd970   2.334       .  S
C966        O975   1.263       .  A
C966        O971   1.268       .  A
C966       C1095   1.472       .  S
O967        C973   1.268       .  A
O967       Cd970   2.552       .  S
C968        O976   1.272       .  A
C968       C1067   1.451       .  S
C969       C1022   1.524       .  S
Cd970       O977   2.590       .  S
Cd970       O976   2.466       .  S
Cd970       O974   2.524       .  S
Cd970       O972   2.698       .  S
C973        O977   1.275       .  A
C973       C1162   1.535       .  S
C978       C1008   1.602       .  S
C978       C1658   1.593       .  S
C978       C1106   1.610   1_545  S
C978       C1204   1.628       .  S
C979       C2213   1.606       .  S
C979       C1011   1.599   1_565  S
C979       C1025   1.608   1_655  S
O980        C983   1.269       .  A
O980       Cd985   2.354       .  S
C981        O990   1.273       .  A
C981        O986   1.270       .  A
C981       C1078   1.468       .  S
O982        C988   1.280       .  A
O982       Cd985   2.632       .  S
C983        O991   1.274       .  A
C983       C1179   1.463       .  S
C984        O989   1.268       .  A
C984        O987   1.279       .  A
C984       C1039   1.500       .  S
Cd985       O992   2.502       .  S
Cd985       O991   2.449       .  S
Cd985       O990   2.457       .  S
Cd985       O986   2.363       .  S
Cd985       O989   2.471       .  S
Cd985       O987   2.558       .  S
C988        O992   1.266       .  A
C988        C994   1.526       .  S
C993        C994   1.406       .  A
C993        C998   1.422       .  A
C993       H1000   1.084       .  S
C994        C995   1.410       .  A
C995        C996   1.417       .  A
C995       N1002   1.427       .  S
C996        C997   1.430       .  A
C996       H1001   1.074       .  S
C997       C2195   1.620       .  S
C997        C998   1.442       .  A
C998        N999   1.428       .  S
N999       O1003   1.261       .  A
N999       O1004   1.264       .  A
N1002      O1006   1.261       .  A
N1002      O1005   1.260       .  A
C1007      C1008   1.424   1_565  A
C1007      H1014   1.084       .  S
C1008      C1617   1.440       .  A
C1009      C1616   1.429       .  A
C1009      N1016   1.421       .  S
C1010      H1015   1.083       .  S
C1011      C2228   1.430   1_545  A
C1012      C2227   1.424       .  A
C1012      N1013   1.430       .  S
N1013      O1017   1.261       .  A
N1013      O1018   1.261       .  A
N1016      O1020   1.262       .  A
C1021      C1022   1.395       .  A
C1021      C1026   1.411       .  A
C1021      H1028   1.084       .  S
C1023      C1024   1.404       .  A
C1023      N1030   1.428       .  S
C1024      H1029   1.084       .  S
C1025      C1026   1.430       .  A
C1026      N1027   1.406       .  S
N1027      O1031   1.258   1_565  A
N1027      O1032   1.262       .  A
N1030      O1034   1.262       .  A
N1030      O1033   1.262       .  A
C1035      C1036   1.408       .  A
C1035      C1040   1.407       .  A
C1035      H1042   1.084       .  S
C1036      C1037   1.421       .  A
C1037      C1038   1.415       .  A
C1037      N1044   1.428       .  S
C1038      C1039   1.405       .  A
C1038      H1043   1.084       .  S
C1039      C1040   1.414       .  A
C1040      N1041   1.428       .  S
N1041      O1045   1.262       .  A
N1041      O1046   1.262       .  A
N1044      O1048   1.262       .  A
N1044      O1047   1.262       .  A
C1049      C1050   1.416       .  A
C1049      C1054   1.408       .  A
C1049      H1056   1.072       .  S
C1050      C1586   1.601   1_455  S
C1050      C1051   1.448       .  A
C1051      C1052   1.415       .  A
C1051      N1058   1.436   1_455  S
C1052      C1053   1.404       .  A
C1052      H1057   1.084       .  S
C1053      C1054   1.413       .  A
C1054      N1055   1.428       .  S
N1055      O1059   1.262       .  A
N1055      O1060   1.262       .  A
N1058      O1062   1.260       .  A
N1058      O1061   1.262       .  A
C1063      C1064   1.397       .  A
C1063      C1068   1.394       .  A
C1063      H1070   1.084       .  S
C1064      C1065   1.414       .  A
C1065      C1066   1.393       .  A
C1065      N1072   1.431       .  S
C1066      C1067   1.398       .  A
C1066      H1071   1.085       .  S
C1067      C1068   1.409       .  A
C1068      N1069   1.428       .  S
N1069      O1073   1.262       .  A
N1069      O1074   1.262       .  A
N1072      O1076   1.262       .  A
N1072      O1075   1.262       .  A
C1077      C1078   1.403       .  A
C1077      C1082   1.397       .  A
C1077      H1084   1.084       .  S
C1078      C1079   1.409       .  A
C1079      C1080   1.394       .  A
C1079      N1086   1.428       .  S
C1080      C1081   1.401       .  A
C1080      H1085   1.084       .  S
C1081      C1082   1.412       .  A
C1082      N1083   1.429       .  S
N1083      O1087   1.262       .  A
N1083      O1088   1.262       .  A
N1086      O1090   1.262       .  A
N1086      O1089   1.262       .  A
C1091      C1092   1.405       .  A
C1091      C1096   1.400       .  A
C1091      H1098   1.083       .  S
C1092      C1093   1.421       .  A
C1093      C1094   1.401       .  A
C1093      N1100   1.425       .  S
C1094      C1095   1.397       .  A
C1094      H1099   1.084       .  S
C1095      C1096   1.406       .  A
C1096      N1097   1.426       .  S
N1097      O1101   1.261       .  A
N1097      O1102   1.262       .  A
N1100      O1104   1.260       .  A
N1100      O1103   1.262       .  A
C1105      C1106   1.417       .  A
C1105      C1110   1.411       .  A
C1105      H1112   1.076       .  S
C1106      C2323   1.450       .  A
C1107      C2322   1.448       .  A
C1107      C1108   1.419       .  A
C1107      N1114   1.433       .  S
C1108      C2325   1.400       .  A
C1108      H1113   1.084       .  S
C1109      C2324   1.397       .  A
C1109      C1110   1.413       .  A
C1110      N1111   1.423       .  S
N1111      O1115   1.258       .  A
N1111      O1116   1.262       .  A
N1114      O1118   1.261       .  A
N1114      O2333   1.263       .  A
O1117      N2330   1.263       .  A
C1119      C2336   1.409       .  A
C1119      C1124   1.405       .  A
C1119      H1126   1.084       .  S
C1120      C2335   1.411       .  A
C1120      C1121   1.409       .  A
C1121      C1122   1.401       .  A
C1121      N1128   1.428       .  S
C1122      C1123   1.412       .  A
C1122      H1127   1.084       .  S
C1123      C2340   1.410       .  A
C1124      C2339   1.413       .  A
C1124      N1125   1.428       .  S
N1125      O1129   1.261       .  A
N1125      O1130   1.262       .  A
N1128      O1132   1.262       .  A
N1128      O1131   1.262       .  A
C1133      C1134   1.396       .  A
C1133      C1138   1.391       .  A
C1133      H1140   1.085       .  S
C1134      C1135   1.406       .  A
C1135      C1136   1.401       .  A
C1135      N1142   1.430       .  S
C1136      C1137   1.409       .  A
C1136      H1141   1.084       .  S
C1137      C1138   1.415       .  A
C1138      N1139   1.428       .  S
N1139      O1143   1.262   1_455  A
N1139      O1144   1.262       .  A
N1142      O1146   1.262       .  A
N1142      O1145   1.262       .  A
C1147      C2364   1.400       .  A
C1147      C1152   1.415       .  A
C1147      H1154   1.084       .  S
C1148      C2363   1.400       .  A
C1148      C1149   1.411       .  A
C1149      C1150   1.406       .  A
C1149      N1156   1.426       .  S
C1150      C1151   1.421       .  A
C1150      H1155   1.079       .  S
C1151      C2368   1.442       .  A
C1152      C2367   1.442       .  A
C1152      N1153   1.428       .  S
N1153      O1157   1.262   1_556  A
N1153      O1158   1.263       .  A
N1156      O1160   1.262       .  A
N1156      O1159   1.262       .  A
C1161      C1162   1.417       .  A
C1161      C1166   1.422       .  A
C1161      H1168   1.083       .  S
C1162      C1163   1.420       .  A
C1163      C1164   1.423       .  A
C1163      N1170   1.428       .  S
C1164      C1165   1.416       .  A
C1165      C1166   1.418       .  A
C1166      N1167   1.428       .  S
N1167      O1171   1.262       .  A
N1170      O1173   1.262       .  A
C1175      C1176   1.401       .  A
C1175      C1180   1.391       .  A
C1175      H1182   1.084       .  S
C1176      C1177   1.415       .  A
C1177      C1178   1.402       .  A
C1177      N1184   1.427       .  S
C1178      C1179   1.402       .  A
C1178      H1183   1.085       .  S
C1179      C1180   1.407       .  A
C1180      N1181   1.428       .  S
N1181      O1185   1.262       .  A
N1181      O1186   1.262       .  A
N1184      O1188   1.261       .  A
N1184      O1187   1.262       .  A
C1189      C1190   1.398       .  A
C1189      C1194   1.394       .  A
C1189      H1196   1.084       .  S
C1190      C1191   1.415       .  A
C1191      C1192   1.397       .  A
C1191      N1198   1.428       .  S
C1192      C1193   1.397       .  A
C1192      H1197   1.084       .  S
C1193      C1194   1.413       .  A
C1194      N1195   1.429       .  S
N1195      O1199   1.262       .  A
N1195      O1200   1.262       .  A
N1198      O1202   1.262       .  A
N1198      O1201   1.262       .  A
C1203      C1204   1.422       .  A
C1203      C1208   1.434       .  A
C1203      H1210   1.069       .  S
C1205      C1206   1.412       .  A
C1205      N1212   1.432       .  S
C1206      H1211   1.084       .  S
C1207      C1208   1.423       .  A
C1208      N1209   1.425       .  S
N1209      O1213   1.262       .  A
N1209      O1214   1.262   1_545  A
N1212      O1215   1.262       .  A
O1217      C1220   1.266       .  A
O1217     Cd1830   2.484       .  S
C1218      O1227   1.272       .  A
C1218      O1223   1.262       .  A
C1218      C1497   1.461       .  S
O1219      C1833   1.281       .  A
O1219     Cd1222   2.706       .  S
C1220      O1228   1.268       .  A
C1220      C1480   1.480       .  S
C1221      O1834   1.271       .  A
C1221      O1832   1.272   1_545  A
C1221      C1469   1.529       .  S
Cd1222     O1825   2.368   1_545  S
Cd1222     O1229   2.464       .  S
Cd1222     O1836   2.465   1_545  S
Cd1222     O1227   2.484       .  S
Cd1222     O1223   2.317       .  S
Cd1222     O1834   2.558       .  S
Cd1222     O1832   2.541   1_545  S
O1224      C1829   1.271       .  A
O1224     Cd1830   2.511       .  S
C1225      O1827   1.275       .  A
C1225      O1837   1.267       .  A
C1225      C1511   1.546       .  S
O1226      C1829   1.270       .  A
O1226     Cd1830   2.520       .  S
O1228     Cd1830   2.416       .  S
O1229      C1833   1.263       .  A
O1230      C1233   1.262       .  A
C1231      O1240   1.268       .  A
C1231      O1236   1.262       .  A
C1231      C1494   1.461       .  S
O1232     Cd1235   2.534   1_655  S
C1233      O1241   1.270       .  A
C1233      C1441   1.474       .  S
C1234      O1239   1.265       .  A
C1234      O1237   1.266   1_455  A
C1234      C1424   1.503       .  S
Cd1235     O1242   2.504       .  S
Cd1235     O1240   2.492   1_455  S
Cd1235     O1236   2.372   1_455  S
Cd1235     O1239   2.485       .  S
Cd1235     O1237   2.530   1_455  S
C1238      C1452   1.507       .  S
O1243      C1246   1.272       .  A
O1243     Cd1248   2.404   1_655  S
C1244      O1253   1.273       .  A
C1244      O1249   1.278       .  A
C1244      C1396   1.474       .  S
O1245      C1251   1.266   1_655  A
O1245     Cd1248   2.467   1_655  S
C1246      O1254   1.269       .  A
C1246      C1385   1.477       .  S
C1247      O1252   1.275       .  A
C1247      O1250   1.263   1_455  A
C1247      C1413   1.519       .  S
Cd1248     O1255   2.543       .  S
Cd1248     O1254   2.443   1_455  S
Cd1248     O1252   2.600       .  S
Cd1248     O1250   2.529   1_455  S
C1251      O1255   1.268       .  A
C1251      C1427   1.498       .  S
O1256      C1259   1.263       .  A
O1256     Cd1261   2.364       .  S
C1257      O1266   1.269       .  A
C1257      O1262   1.267       .  A
C1257      C1368   1.457       .  S
O1258      C1264   1.261       .  A
O1258     Cd1261   2.470       .  S
C1259      O1267   1.268       .  A
C1259      C1438   1.447       .  S
C1260      O1265   1.268       .  A
C1260      O1263   1.267       .  A
C1260      C1340   1.502       .  S
Cd1261     O1268   2.546       .  S
Cd1261     O1267   2.459       .  S
Cd1261     O1266   2.389       .  S
Cd1261     O1262   2.371       .  S
Cd1261     O1265   2.455       .  S
Cd1261     O1263   2.514       .  S
C1264      O1268   1.273       .  A
C1264      C1357   1.505       .  S
O1269      C1272   1.259       .  A
O1269     Cd1274   2.361       .  S
C1270      O1279   1.267       .  A
C1270      O1275   1.267       .  A
C1270      C1399   1.466       .  S
O1271      C1277   1.270       .  A
O1271     Cd1274   2.540   1_565  S
C1272      O1280   1.269       .  A
C1272      C1371   1.460       .  S
C1273      O1886   1.263       .  A
C1273      O1884   1.276       .  A
C1273      C1326   1.519       .  S
Cd1274     O1281   2.526       .  S
Cd1274     O1280   2.499       .  S
Cd1274     O1887   2.458   1_545  S
Cd1274     O1883   2.357   1_545  S
Cd1274     O1278   2.676   1_545  S
Cd1274     O1276   2.495   1_545  S
O1275     Cd1882   2.355       .  S
O1276      C1881   1.260       .  A
C1277      O1281   1.272   1_565  A
C1277      C1466   1.525       .  S
O1278      C1881   1.278       .  A
O1279     Cd1882   2.481       .  S
C1282      C1312   1.613       .  S
C1282      C1410   1.610       .  S
C1282      C1508   1.620   1_455  S
C1283      C1315   1.598       .  S
C1283      C1329   1.604       .  S
C1283      C2063   1.612       .  S
O1284      C1287   1.266       .  A
O1284     Cd1289   2.330       .  S
C1285      O1294   1.273       .  A
C1285      O1290   1.269       .  A
C1285      C1382   1.469       .  S
O1286      C1292   1.276       .  A
O1286     Cd1289   2.584       .  S
C1287      O1295   1.274       .  A
C1287      C1483   1.466       .  S
C1288      O1293   1.277       .  A
C1288      O1291   1.268       .  A
C1288      C1343   1.494       .  S
Cd1289     O1296   2.501       .  S
Cd1289     O1295   2.478       .  S
Cd1289     O1294   2.479       .  S
Cd1289     O1290   2.352       .  S
Cd1289     O1293   2.529       .  S
Cd1289     O1291   2.464       .  S
C1292      O1296   1.265       .  A
C1292      C1298   1.513       .  S
C1297      C1298   1.406       .  A
C1297      C1302   1.419       .  A
C1297      H1304   1.084       .  S
C1298      C1299   1.408       .  A
C1299      C1300   1.410       .  A
C1299      N1306   1.425       .  S
C1300      C1301   1.421       .  A
C1300      H1305   1.075       .  S
C1301      C1302   1.446       .  A
C1302      N1303   1.437       .  S
N1303      O1307   1.260       .  A
N1303      O1308   1.263       .  A
N1306      O1310   1.261       .  A
N1306      O1309   1.260       .  A
C1311      C1312   1.422   1_655  A
C1311      C1620   1.428       .  A
C1311      H1318   1.083       .  S
C1313      C1618   1.417       .  A
C1313      N1320   1.432       .  S
C1314      C1617   1.412       .  A
C1314      C1923   1.410   1_545  A
C1314      H1319   1.083       .  S
C1315      C1922   1.412       .  A
C1316      C1615   1.431       .  A
C1316      N1317   1.432       .  S
N1317      O1321   1.262       .  A
N1317      O1322   1.258       .  A
N1320      O1324   1.262       .  A
N1320      O1931   1.260       .  A
O1323      N1928   1.262       .  A
C1325      C1326   1.397       .  A
C1325      C1330   1.411       .  A
C1325      H1332   1.084       .  S
C1326      C1935   1.408       .  A
C1327      C1934   1.418       .  A
C1327      C1328   1.399       .  A
C1327      N1334   1.427       .  S
C1328      C1937   1.414       .  A
C1328      H1333   1.084       .  S
C1329      C1936   1.411       .  A
C1329      C1330   1.429       .  A
C1330      N1331   1.408       .  S
N1331      O1335   1.259       .  A
N1331      O1336   1.262       .  A
N1334      O1338   1.262   1_565  A
N1334      O1337   1.262       .  A
C1339      C1340   1.403       .  A
C1339      C1344   1.401       .  A
C1339      H1346   1.084       .  S
C1340      C1341   1.422       .  A
C1341      C1342   1.413       .  A
C1341      N1348   1.427       .  S
C1342      C1343   1.403       .  A
C1342      H1347   1.084       .  S
C1343      C1344   1.412       .  A
C1344      N1345   1.425       .  S
N1345      O1349   1.261       .  A
N1345      O1350   1.262       .  A
N1348      O1352   1.262       .  A
N1348      O1351   1.262       .  A
C1353      C1354   1.406       .  A
C1353      C1358   1.406       .  A
C1353      H1360   1.077       .  S
C1354      C1355   1.434       .  A
C1355      C1356   1.414       .  A
C1355      N1362   1.430       .  S
C1356      C1357   1.403       .  A
C1356      H1361   1.083       .  S
C1357      C1358   1.416       .  A
C1358      N1359   1.431       .  S
N1359      O1363   1.262       .  A
N1359      O1364   1.262       .  A
N1362      O1366   1.261   1_554  A
N1362      O1365   1.263       .  A
C1367      C1368   1.393       .  A
C1367      C1372   1.386       .  A
C1367      H1374   1.084       .  S
C1368      C1369   1.409       .  A
C1369      C1370   1.399       .  A
C1369      N1376   1.431       .  S
C1370      C1371   1.401       .  A
C1370      H1375   1.084       .  S
C1371      C1372   1.414       .  A
C1372      N1373   1.430       .  S
N1373      O1377   1.262       .  A
N1373      O1378   1.262       .  A
N1376      O1380   1.262       .  A
N1376      O1379   1.262       .  A
C1381      C1382   1.403       .  A
C1381      C1386   1.399       .  A
C1381      H1388   1.085       .  S
C1382      C1383   1.409       .  A
C1383      C1384   1.395       .  A
C1383      N1390   1.428       .  S
C1384      C1385   1.403       .  A
C1384      H1389   1.084       .  S
C1385      C1386   1.415       .  A
C1386      N1387   1.429       .  S
N1387      O1391   1.262       .  A
N1387      O1392   1.262       .  A
N1390      O1394   1.262       .  A
N1390      O1393   1.262       .  A
C1395      C1396   1.404       .  A
C1395      C1400   1.395       .  A
C1395      H1402   1.084       .  S
C1396      C1397   1.416       .  A
C1397      C1398   1.401       .  A
C1397      N1404   1.428       .  S
C1398      C1399   1.403       .  A
C1398      H1403   1.084       .  S
C1399      C1400   1.405       .  A
C1400      N1401   1.428       .  S
N1401      O1405   1.262       .  A
N1401      O1406   1.262       .  A
N1404      O1408   1.262       .  A
N1404      O1407   1.262       .  A
C1409      C1410   1.419   1_655  A
C1409      C1414   1.411       .  A
C1409      H1416   1.079       .  S
C1411      C1412   1.425       .  A
C1411      N1418   1.433       .  S
C1412      H1417   1.084       .  S
C1413      C1414   1.415   1_455  A
C1414      N1415   1.427       .  S
N1415      O1419   1.261       .  A
N1415      O1420   1.262       .  A
N1418      O1422   1.261       .  A
C1423      C1428   1.405       .  A
C1423      H1430   1.083       .  S
C1424      C1425   1.415   1_455  A
C1425      C1426   1.406       .  A
C1425      N1432   1.428       .  S
C1426      C1427   1.408   1_655  A
C1426      H1431   1.084       .  S
C1428      N1429   1.427       .  S
N1429      O1433   1.261       .  A
N1429      O1434   1.262       .  A
N1432      O1436   1.262       .  A
N1432      O1435   1.262       .  A
C1437      C1438   1.390       .  A
C1437      C1442   1.391       .  A
C1437      H1444   1.085       .  S
C1438      C1439   1.401       .  A
C1439      C1440   1.397       .  A
C1439      N1446   1.429       .  S
C1440      C1441   1.407       .  A
C1440      H1445   1.084       .  S
C1441      C1442   1.420       .  A
C1442      N1443   1.429       .  S
N1443      O1447   1.262       .  A
N1443      O1448   1.262       .  A
N1446      O1450   1.262       .  A
N1446      O1449   1.262       .  A
C1451      C1456   1.412       .  A
C1451      H1458   1.084       .  S
C1452      C1453   1.412       .  A
C1453      C1454   1.404       .  A
C1453      N1460   1.427       .  S
C1454      C1455   1.420       .  A
C1454      H1459   1.079       .  S
C1455      C1891   1.609   1_545  S
C1456      N1457   1.428       .  S
N1457      O1461   1.260       .  A
N1457      O1462   1.262   1_545  A
N1460      O1464   1.262       .  A
N1460      O1463   1.262       .  A
C1465      C1466   1.413       .  A
C1465      C1470   1.419       .  A
C1465      H1472   1.083       .  S
C1466      C1467   1.420   1_565  A
C1467      C1468   1.421       .  A
C1467      N1474   1.429       .  S
C1468      C1469   1.415       .  A
C1468      H2081   1.083       .  S
C1469      C1470   1.419   1_545  A
C1470      N1471   1.428       .  S
N1471      O1475   1.262       .  A
N1471      O2084   1.262       .  A
H1473      C2076   1.078       .  S
N1474      O2086   1.262       .  A
N1474      O1477   1.262       .  A
O1476      N2079   1.262       .  A
O1478      N2082   1.262       .  A
C1479      C1480   1.397       .  A
C1479      C1484   1.392       .  A
C1479      H1486   1.082       .  S
C1480      C1481   1.413       .  A
C1481      C1482   1.403       .  A
C1481      N1488   1.420       .  S
C1482      C1483   1.399       .  A
C1482      H1487   1.084       .  S
C1483      C1484   1.408       .  A
C1484      N1485   1.423       .  S
N1485      O1489   1.262       .  A
N1485      O1490   1.260       .  A
N1488      O1492   1.257       .  A
N1488      O1491   1.261       .  A
C1493      C1494   1.405       .  A
C1493      C1498   1.394       .  A
C1493      H1500   1.085       .  S
C1494      C1495   1.405       .  A
C1495      C1496   1.392       .  A
C1495      N1502   1.428       .  S
C1496      C1497   1.405       .  A
C1496      H1501   1.085       .  S
C1497      C1498   1.404       .  A
C1498      N1499   1.428       .  S
N1499      O1503   1.262       .  A
N1499      O1504   1.262       .  A
N1502      O1506   1.262       .  A
N1502      O1505   1.262       .  A
C1507      C1508   1.417       .  A
C1507      C1512   1.431       .  A
C1507      H1514   1.069       .  S
C1508      C2117   1.440       .  A
C1509      C2116   1.437       .  A
C1509      C1510   1.407       .  A
C1509      N1516   1.431       .  S
C1510      C2119   1.405       .  A
C1510      H1515   1.084       .  S
C1511      C2118   1.406       .  A
C1511      C1512   1.423       .  A
C1512      N1513   1.425       .  S
N1513      O1517   1.262       .  A
N1513      O1518   1.262       .  A
N1516      O2128   1.262   1_545  A
N1516      O1519   1.263       .  A
O1520      N2124   1.259   1_655  A
O1521      C1524   1.262       .  A
O1521     Cd2134   2.370       .  S
C1522      O1531   1.270       .  A
C1522      O1527   1.268       .  A
C1522      C1801   1.471       .  S
O1523      C2137   1.275       .  A
O1523     Cd1526   2.730       .  S
C1524      O1532   1.271       .  A
C1524      C1784   1.455       .  S
C1525      O2138   1.269       .  A
C1525      O2136   1.271   1_545  A
C1525      C1773   1.523       .  S
Cd1526     O2129   2.501   1_545  S
Cd1526     O1533   2.549       .  S
Cd1526     O2140   2.429   1_545  S
Cd1526     O1531   2.423       .  S
Cd1526     O1527   2.436       .  S
Cd1526     O2138   2.556       .  S
Cd1526     O2136   2.542   1_545  S
O1528      C2133   1.270       .  A
O1528     Cd2134   2.562       .  S
C1529      O2131   1.279       .  A
C1529      O2141   1.263       .  A
C1529      C1815   1.541       .  S
O1530      C2133   1.271       .  A
O1530     Cd2134   2.540       .  S
O1532     Cd2134   2.459       .  S
O1533      C2137   1.265       .  A
O1534      C1537   1.265       .  A
C1535      O1544   1.269       .  A
C1535      O1540   1.269       .  A
C1535      C1798   1.469       .  S
O1536     Cd1539   2.591   1_455  S
C1537      O1545   1.269       .  A
C1537      C1745   1.470       .  S
C1538      O1543   1.274       .  A
C1538      O1541   1.264       .  A
C1538      C1728   1.504       .  S
Cd1539     O1546   2.580       .  S
Cd1539     O1544   2.489       .  S
Cd1539     O1540   2.362       .  S
Cd1539     O1543   2.586       .  S
Cd1539     O1541   2.490       .  S
C1542      C1756   1.516       .  S
O1547      C1550   1.264       .  A
O1547     Cd1552   2.353       .  S
C1548      O1557   1.270       .  A
C1548      O1553   1.262       .  A
C1548      C1700   1.461       .  S
O1549      C1555   1.265       .  A
O1549     Cd1552   2.526       .  S
C1550      O1558   1.267       .  A
C1550      C1689   1.452       .  S
C1551      O1556   1.271   1_655  A
C1551      O1554   1.263       .  A
C1551      C1717   1.514       .  S
Cd1552     O1559   2.525   1_655  S
Cd1552     O1558   2.437       .  S
Cd1552     O1556   2.567   1_655  S
Cd1552     O1554   2.516       .  S
C1555      O1559   1.268   1_655  A
C1555      C1731   1.514       .  S
O1560      C1563   1.268       .  A
O1560     Cd1565   2.385       .  S
C1561      O1570   1.266       .  A
C1561      O1566   1.266       .  A
C1561      C1672   1.459       .  S
O1562      C1568   1.268       .  A
O1562     Cd1565   2.540       .  S
C1563      O1571   1.269       .  A
C1563      C1742   1.466       .  S
C1564      O1569   1.269       .  A
C1564      O1567   1.264       .  A
C1564      C1644   1.489       .  S
Cd1565     O1572   2.499       .  S
Cd1565     O1571   2.418       .  S
Cd1565     O1570   2.359       .  S
Cd1565     O1566   2.473       .  S
Cd1565     O1569   2.481       .  S
Cd1565     O1567   2.444       .  S
C1568      O1572   1.262       .  A
C1568      C1661   1.497       .  S
O1573      C1576   1.269       .  A
O1573     Cd1578   2.361   1_545  S
C1574      O1583   1.271       .  A
C1574      O1579   1.266       .  A
C1574      C1703   1.476       .  S
O1575      C1581   1.271   1_565  A
O1575     Cd1578   2.583       .  S
C1576      O1584   1.264       .  A
C1576      C1675   1.456       .  S
C1577      O2190   1.279       .  A
C1577      O2188   1.263       .  A
C1577      C1630   1.545       .  S
Cd1578     O1585   2.514   1_565  S
Cd1578     O1584   2.474   1_565  S
Cd1578     O2191   2.458       .  S
Cd1578     O2187   2.366       .  S
Cd1578     O1582   2.508       .  S
Cd1578     O1580   2.605   1_565  S
O1579     Cd2186   2.354       .  S
O1580      C2185   1.272   1_545  A
C1581      O1585   1.266       .  A
C1581      C1770   1.514       .  S
O1582      C2185   1.261       .  A
O1583     Cd2186   2.479       .  S
C1586      C1616   1.606       .  S
C1586      C1714   1.615       .  S
C1586      C1812   1.601       .  S
C1587      C1619   1.593   1_556  S
C1587      C1633   1.612       .  S
C1587      C2367   1.605       .  S
O1588      C1591   1.264       .  A
O1588     Cd1593   2.435       .  S
C1589      O1598   1.268       .  A
C1589      O1594   1.262       .  A
C1589      C1686   1.449       .  S
O1590      C1596   1.265       .  A
O1590     Cd1593   2.499       .  S
C1591      O1599   1.270       .  A
C1591      C1787   1.471       .  S
C1592      O1597   1.267       .  A
C1592      O1595   1.263       .  A
C1592      C1647   1.486       .  S
Cd1593     O1600   2.540       .  S
Cd1593     O1599   2.446       .  S
Cd1593     O1598   2.462       .  S
Cd1593     O1594   2.348       .  S
Cd1593     O1597   2.453       .  S
Cd1593     O1595   2.505       .  S
C1596      O1600   1.263       .  A
C1596      C1602   1.503       .  S
C1601      C1602   1.397       .  A
C1601      C1606   1.407       .  A
C1601      H1608   1.084       .  S
C1602      C1603   1.412       .  A
C1603      C1604   1.408       .  A
C1603      N1610   1.428       .  S
C1604      C1605   1.417       .  A
C1604      H1609   1.073       .  S
C1605      C1606   1.442       .  A
C1606      N1607   1.429   1_655  S
N1607      O1611   1.261       .  A
N1607      O1612   1.264       .  A
N1610      O1614   1.262       .  A
N1610      O1613   1.262       .  A
C1615      C1616   1.423       .  A
C1615      H1622   1.083       .  S
C1617      N1624   1.430       .  S
C1618      C2227   1.417   1_545  A
C1618      H1623   1.083       .  S
C1619      C2226   1.408       .  A
C1620      N1621   1.430       .  S
N1621      O1625   1.261       .  A
N1621      O1626   1.262       .  A
N1624      O1628   1.261       .  A
N1624      O2235   1.262       .  A
O1627      N2232   1.261       .  A
C1629      C1630   1.418       .  A
C1629      C1634   1.439       .  A
C1629      H1636   1.083       .  S
C1630      C2239   1.420       .  A
C1631      C2238   1.409       .  A
C1631      C1632   1.416       .  A
C1631      N1638   1.430       .  S
C1632      C2241   1.406       .  A
C1632      H1637   1.114       .  S
C1633      C2240   1.416       .  A
C1633      C1634   1.441       .  A
C1634      N1635   1.429   1_556  S
N1635      O1639   1.262       .  A
N1635      O1640   1.262       .  A
N1638      O1642   1.259   1_565  A
N1638      O1641   1.261       .  A
C1643      C1644   1.409       .  A
C1643      C1648   1.407       .  A
C1643      H1650   1.084       .  S
C1644      C1645   1.414       .  A
C1645      C1646   1.398       .  A
C1645      N1652   1.429       .  S
C1646      C1647   1.404       .  A
C1646      H1651   1.085       .  S
C1647      C1648   1.413       .  A
C1648      N1649   1.428       .  S
N1649      O1653   1.262       .  A
N1649      O1654   1.262       .  A
N1652      O1656   1.262       .  A
N1652      O1655   1.262       .  A
C1657      C1658   1.418       .  A
C1657      C1662   1.400       .  A
C1657      H1664   1.065       .  S
C1658      C1659   1.441       .  A
C1659      C1660   1.417       .  A
C1659      N1666   1.433       .  S
C1660      C1661   1.404       .  A
C1660      H1665   1.084       .  S
C1661      C1662   1.403       .  A
C1662      N1663   1.430       .  S
N1663      O1667   1.262       .  A
N1663      O1668   1.262       .  A
N1666      O1670   1.261       .  A
N1666      O1669   1.262       .  A
C1671      C1672   1.400       .  A
C1671      C1676   1.392       .  A
C1671      H1678   1.085       .  S
C1672      C1673   1.404       .  A
C1673      C1674   1.401       .  A
C1673      N1680   1.429       .  S
C1674      C1675   1.408       .  A
C1674      H1679   1.085       .  S
C1675      C1676   1.405       .  A
C1676      N1677   1.429       .  S
N1677      O1681   1.262       .  A
N1677      O1682   1.262       .  A
N1680      O1684   1.261       .  A
N1680      O1683   1.262       .  A
C1685      C1686   1.402       .  A
C1685      C1690   1.390       .  A
C1685      H1692   1.085       .  S
C1686      C1687   1.402       .  A
C1687      C1688   1.388       .  A
C1687      N1694   1.428       .  S
C1688      C1689   1.402       .  A
C1688      H1693   1.085       .  S
C1689      C1690   1.406       .  A
C1690      N1691   1.429       .  S
N1691      O1695   1.262       .  A
N1691      O1696   1.262       .  A
N1694      O1698   1.262       .  A
N1694      O1697   1.262       .  A
C1699      C1700   1.403       .  A
C1699      C1704   1.398       .  A
C1699      H1706   1.084       .  S
C1700      C1701   1.406       .  A
C1701      C1702   1.390       .  A
C1701      N1708   1.430       .  S
C1702      C1703   1.405       .  A
C1702      H1707   1.081       .  S
C1703      C1704   1.412       .  A
C1704      N1705   1.428       .  S
N1705      O1709   1.262       .  A
N1705      O1710   1.262       .  A
N1708      O1712   1.262       .  A
N1708      O1711   1.262       .  A
C1713      C1714   1.420       .  A
C1713      C1718   1.409       .  A
C1713      H1720   1.077       .  S
C1715      C1716   1.414       .  A
C1715      N1722   1.422       .  S
C1716      H1721   1.085       .  S
C1717      C1718   1.414       .  A
C1718      N1719   1.428       .  S
N1719      O1723   1.262       .  A
N1719      O1724   1.262       .  A
N1722      O1726   1.253       .  A
C1727      C1732   1.407       .  A
C1727      H1734   1.084       .  S
C1728      C1729   1.416   1_655  A
C1729      C1730   1.414       .  A
C1729      N1736   1.427       .  S
C1730      C1731   1.410   1_455  A
C1730      H1735   1.084       .  S
C1732      N1733   1.427       .  S
N1733      O1737   1.262       .  A
N1733      O1738   1.262       .  A
N1736      O1740   1.262       .  A
N1736      O1739   1.262       .  A
C1741      C1742   1.394       .  A
C1741      C1746   1.392       .  A
C1741      H1748   1.084       .  S
C1742      C1743   1.407       .  A
C1743      C1744   1.399       .  A
C1743      N1750   1.431       .  S
C1744      C1745   1.405       .  A
C1744      H1749   1.084       .  S
C1745      C1746   1.414       .  A
C1746      N1747   1.425       .  S
N1747      O1751   1.262       .  A
N1747      O1752   1.260       .  A
N1750      O1754   1.262       .  A
N1750      O1753   1.262       .  A
C1755      C1760   1.417       .  A
C1755      H1762   1.082       .  S
C1756      C1757   1.416       .  A
C1757      C1758   1.417       .  A
C1757      N1764   1.428       .  S
C1758      C1759   1.421       .  A
C1758      H1763   1.079       .  S
C1759      C2195   1.613   1_545  S
C1760      N1761   1.428       .  S
N1761      O1765   1.262       .  A
N1761      O1766   1.263       .  A
N1764      O1768   1.261       .  A
N1764      O1767   1.262       .  A
C1769      C1770   1.409   1_565  A
C1769      C1774   1.418       .  A
C1769      H1776   1.083       .  S
C1770      C1771   1.416       .  A
C1771      C1772   1.418       .  A
C1771      N1778   1.431       .  S
C1772      C1773   1.412       .  A
C1772      H2385   1.078       .  S
C1773      C1774   1.416   1_545  A
C1774      N1775   1.427       .  S
N1775      O1779   1.261       .  A
N1775      O2388   1.262       .  A
H1777      C2380   1.083       .  S
N1778      O2390   1.262       .  A
N1778      O1781   1.262       .  A
O1780      N2383   1.262       .  A
O1782      N2386   1.262       .  A
C1783      C1784   1.395       .  A
C1783      C1788   1.394       .  A
C1783      H1790   1.085       .  S
C1784      C1785   1.410       .  A
C1785      C1786   1.393       .  A
C1785      N1792   1.429       .  S
C1786      C1787   1.400       .  A
C1786      H1791   1.084       .  S
C1787      C1788   1.417       .  A
C1788      N1789   1.429       .  S
N1789      O1793   1.262       .  A
N1789      O1794   1.262       .  A
N1792      O1796   1.262       .  A
N1792      O1795   1.262       .  A
C1797      C1798   1.400       .  A
C1797      C1802   1.401       .  A
C1797      H1804   1.084       .  S
C1798      C1799   1.410       .  A
C1799      C1800   1.401       .  A
C1799      N1806   1.427       .  S
C1800      C1801   1.401       .  A
C1800      H1805   1.083       .  S
C1801      C1802   1.413       .  A
C1802      N1803   1.425       .  S
N1803      O1807   1.261       .  A
N1803      O1808   1.262       .  A
N1806      O1810   1.262       .  A
N1806      O1809   1.262       .  A
C1811      C1812   1.420       .  A
C1811      C1816   1.431       .  A
C1811      H1818   1.081       .  S
C1812      C2421   1.438       .  A
C1813      C2420   1.438       .  A
C1813      C1814   1.414       .  A
C1813      N1820   1.420       .  S
C1814      C2423   1.403       .  A
C1814      H1819   1.084       .  S
C1815      C2422   1.408       .  A
C1815      C1816   1.425       .  A
C1816      N1817   1.426       .  S
N1817      O1821   1.262       .  A
N1817      O1822   1.262       .  A
N1820      O2432   1.260   1_545  A
N1820      O1823   1.262   1_655  A
O1824      N2428   1.262       .  A
O1825      C1828   1.262       .  A
C1826      O1835   1.268       .  A
C1826      O1831   1.268       .  A
C1826      C2105   1.473       .  S
O1827     Cd1830   2.694       .  S
C1828      O1836   1.272       .  A
C1828      C2088   1.455       .  S
C1829      C2077   1.515       .  S
Cd1830     O1837   2.568       .  S
Cd1830     O1835   2.446       .  S
Cd1830     O1831   2.452       .  S
C1833      C2119   1.538       .  S
O1838      C1841   1.266       .  A
C1839      O1848   1.268       .  A
C1839      O1844   1.269       .  A
C1839      C2102   1.478       .  S
O1840     Cd1843   2.574       .  S
C1841      O1849   1.267       .  A
C1841      C2049   1.461       .  S
C1842      O1847   1.264       .  A
C1842      O1845   1.274       .  A
C1842      C2032   1.494       .  S
Cd1843     O1850   2.538   1_655  S
Cd1843     O1848   2.499       .  S
Cd1843     O1844   2.373       .  S
Cd1843     O1847   2.450       .  S
Cd1843     O1845   2.572       .  S
C1846      C2060   1.519       .  S
O1851      C1854   1.265       .  A
O1851     Cd1856   2.368       .  S
C1852      O1861   1.269       .  A
C1852      O1857   1.261       .  A
C1852      C2004   1.467       .  S
O1853      C1859   1.266       .  A
O1853     Cd1856   2.514       .  S
C1854      O1862   1.268       .  A
C1854      C1993   1.452       .  S
C1855      O1860   1.272       .  A
C1855      O1858   1.264       .  A
C1855      C2021   1.511       .  S
Cd1856     O1863   2.501   1_655  S
Cd1856     O1862   2.427       .  S
Cd1856     O1860   2.530       .  S
Cd1856     O1858   2.549       .  S
C1859      O1863   1.266   1_655  A
C1859      C2035   1.503       .  S
O1864      C1867   1.269       .  A
O1864     Cd1869   2.447       .  S
C1865      O1874   1.266       .  A
C1865      O1870   1.270       .  A
C1865      C1976   1.462       .  S
O1866      C1872   1.266       .  A
O1866     Cd1869   2.607       .  S
C1867      O1875   1.268       .  A
C1867      C2046   1.473       .  S
C1868      O1873   1.267       .  A
C1868      O1871   1.266       .  A
C1868      C1948   1.498       .  S
Cd1869     O1876   2.565       .  S
Cd1869     O1875   2.391       .  S
Cd1869     O1874   2.341       .  S
Cd1869     O1870   2.476       .  S
Cd1869     O1873   2.498       .  S
Cd1869     O1871   2.485       .  S
C1872      O1876   1.266       .  A
C1872      C1965   1.525       .  S
O1877      C1880   1.270       .  A
O1877     Cd1882   2.391       .  S
C1878      O1887   1.272       .  A
C1878      O1883   1.267       .  A
C1878      C2007   1.468       .  S
O1879      C1885   1.266       .  A
O1879     Cd1882   2.471       .  S
C1880      O1888   1.268       .  A
C1880      C1979   1.463       .  S
C1881      C1934   1.533       .  S
Cd1882     O1889   2.554       .  S
Cd1882     O1888   2.462       .  S
Cd1882     O1886   2.460       .  S
Cd1882     O1884   2.647       .  S
C1885      O1889   1.273       .  A
C1885      C2074   1.501       .  S
C1890      C1920   1.615   1_554  S
C1890      C2018   1.615   1_545  S
C1890      C2116   1.604       .  S
C1891      C1923   1.583       .  S
C1891      C1937   1.601       .  S
O1892      C1895   1.263       .  A
O1892     Cd1897   2.407       .  S
C1893      O1902   1.268       .  A
C1893      O1898   1.264       .  A
C1893      C1990   1.459       .  S
O1894      C1900   1.266       .  A
O1894     Cd1897   2.517       .  S
C1895      O1903   1.271       .  A
C1895      C2091   1.471       .  S
C1896      O1901   1.269       .  A
C1896      O1899   1.264       .  A
C1896      C1951   1.504       .  S
Cd1897     O1904   2.537       .  S
Cd1897     O1903   2.469       .  S
Cd1897     O1902   2.475       .  S
Cd1897     O1898   2.321       .  S
Cd1897     O1901   2.487       .  S
Cd1897     O1899   2.513       .  S
C1900      O1904   1.265       .  A
C1900      C1906   1.505       .  S
C1905      C1906   1.402       .  A
C1905      C1910   1.412       .  A
C1905      H1912   1.084       .  S
C1906      C1907   1.413       .  A
C1907      C1908   1.405       .  A
C1907      N1914   1.428       .  S
C1908      C1909   1.415       .  A
C1908      H1913   1.073       .  S
C1909      C1910   1.441       .  A
C1910      N1911   1.432   1_655  S
N1911      O1915   1.261       .  A
N1911      O1916   1.263       .  A
N1914      O1918   1.262       .  A
N1914      O1917   1.262       .  A
C1919      C1920   1.426   1_565  A
C1919      C2228   1.432       .  A
C1919      H1926   1.082       .  S
C1921      C2226   1.414       .  A
C1921      N1928   1.427       .  S
C1922      C2225   1.415       .  A
C1922      H1927   1.083       .  S
C1924      C2223   1.425       .  A
C1924      N1925   1.428       .  S
N1925      O1929   1.261       .  A
N1925      O1930   1.262       .  A
N1928      O1932   1.261       .  A
C1933      C1934   1.414       .  A
C1933      C1938   1.435       .  A
C1933      H1940   1.083       .  S
C1935      C1936   1.416       .  A
C1935      N1942   1.415       .  S
C1936      H1941   1.043       .  S
C1937      C1938   1.441       .  A
C1938      N1939   1.430       .  S
N1939      O1943   1.262   1_565  A
N1939      O1944   1.262       .  A
N1942      O1946   1.259       .  A
N1942      O1945   1.261       .  A
C1947      C1948   1.404       .  A
C1947      C1952   1.410       .  A
C1947      H1954   1.084       .  S
C1948      C1949   1.417       .  A
C1949      C1950   1.404       .  A
C1949      N1956   1.427       .  S
C1950      C1951   1.404       .  A
C1950      H1955   1.084       .  S
C1951      C1952   1.422       .  A
C1952      N1953   1.428       .  S
N1953      O1957   1.262       .  A
N1953      O1958   1.262       .  A
N1956      O1960   1.262       .  A
N1956      O1959   1.261       .  A
C1961      C1962   1.418       .  A
C1961      C1966   1.415       .  A
C1961      H1968   1.064       .  S
C1962      C1963   1.448       .  A
C1963      C1964   1.420       .  A
C1963      N1970   1.434       .  S
C1964      C1965   1.405       .  A
C1964      H1969   1.084       .  S
C1965      C1966   1.414       .  A
C1966      N1967   1.430       .  S
N1967      O1971   1.261       .  A
N1967      O1972   1.262       .  A
N1970      O1974   1.261       .  A
N1970      O1973   1.262       .  A
C1975      C1976   1.400       .  A
C1975      C1980   1.392       .  A
C1975      H1982   1.085       .  S
C1976      C1977   1.403       .  A
C1977      C1978   1.403       .  A
C1977      N1984   1.429       .  S
C1978      C1979   1.410       .  A
C1978      H1983   1.085       .  S
C1979      C1980   1.408       .  A
C1980      N1981   1.428       .  S
N1981      O1985   1.262       .  A
N1981      O1986   1.262       .  A
N1984      O1988   1.262       .  A
N1984      O1987   1.262       .  A
C1989      C1990   1.402       .  A
C1989      C1994   1.385       .  A
C1989      H1996   1.082       .  S
C1990      C1991   1.406       .  A
C1991      C1992   1.395       .  A
C1991      N1998   1.427       .  S
C1992      C1993   1.403       .  A
C1992      H1997   1.084       .  S
C1993      C1994   1.402       .  A
C1994      N1995   1.428       .  S
N1995      O1999   1.262       .  A
N1995      O2000   1.261       .  A
N1998      O2002   1.262       .  A
N1998      O2001   1.262       .  A
C2003      C2004   1.401       .  A
C2003      C2008   1.400       .  A
C2003      H2010   1.084       .  S
C2004      C2005   1.411       .  A
C2005      C2006   1.390       .  A
C2005      N2012   1.429       .  S
C2006      C2007   1.400       .  A
C2006      H2011   1.084       .  S
C2007      C2008   1.412       .  A
C2008      N2009   1.428       .  S
N2009      O2013   1.262       .  A
N2009      O2014   1.262       .  A
N2012      O2016   1.262       .  A
N2012      O2015   1.262       .  A
C2017      C2018   1.429       .  A
C2017      C2022   1.413       .  A
C2017      H2024   1.080       .  S
C2019      C2020   1.414       .  A
C2019      N2026   1.438       .  S
C2020      H2025   1.084       .  S
C2021      C2022   1.410       .  A
C2022      N2023   1.427       .  S
N2023      O2027   1.261       .  A
N2023      O2028   1.262       .  A
N2026      O2030   1.257   1_554  A
C2031      C2036   1.414       .  A
C2031      H2038   1.084       .  S
C2032      C2033   1.416   1_655  A
C2033      C2034   1.412       .  A
C2033      N2040   1.427       .  S
C2034      C2035   1.408   1_455  A
C2034      H2039   1.084       .  S
C2036      N2037   1.428       .  S
N2037      O2041   1.262       .  A
N2037      O2042   1.262       .  A
N2040      O2044   1.262       .  A
N2040      O2043   1.262       .  A
C2045      C2046   1.400       .  A
C2045      C2050   1.393       .  A
C2045      H2052   1.084       .  S
C2046      C2047   1.408       .  A
C2047      C2048   1.403       .  A
C2047      N2054   1.429       .  S
C2048      C2049   1.405       .  A
C2048      H2053   1.084       .  S
C2049      C2050   1.410       .  A
C2050      N2051   1.428       .  S
N2051      O2055   1.262       .  A
N2051      O2056   1.262       .  A
N2054      O2058   1.262       .  A
N2054      O2057   1.262       .  A
C2059      C2064   1.416       .  A
C2059      H2066   1.083       .  S
C2060      C2061   1.411       .  A
C2061      C2062   1.412       .  A
C2061      N2068   1.422       .  S
C2062      C2063   1.420       .  A
C2062      H2067   1.079       .  S
C2064      N2065   1.426       .  S
N2065      O2069   1.262       .  A
N2065      O2070   1.261       .  A
N2068      O2072   1.259       .  A
N2068      O2071   1.260       .  A
C2073      C2074   1.406       .  A
C2073      C2078   1.414       .  A
C2073      H2080   1.084       .  S
C2074      C2075   1.411       .  A
C2075      C2076   1.413       .  A
C2075      N2082   1.431       .  S
C2076      C2077   1.411       .  A
C2077      C2078   1.418       .  A
C2078      N2079   1.427       .  S
N2079      O2083   1.261       .  A
N2082      O2085   1.262       .  A
C2087      C2088   1.393       .  A
C2087      C2092   1.394       .  A
C2087      H2094   1.085       .  S
C2088      C2089   1.409       .  A
C2089      C2090   1.395       .  A
C2089      N2096   1.429       .  S
C2090      C2091   1.400       .  A
C2090      H2095   1.084       .  S
C2091      C2092   1.417       .  A
C2092      N2093   1.428       .  S
N2093      O2097   1.262       .  A
N2093      O2098   1.262       .  A
N2096      O2100   1.262       .  A
N2096      O2099   1.262       .  A
C2101      C2102   1.401       .  A
C2101      C2106   1.404       .  A
C2101      H2108   1.084       .  S
C2102      C2103   1.408       .  A
C2103      C2104   1.401       .  A
C2103      N2110   1.425       .  S
C2104      C2105   1.402       .  A
C2104      H2109   1.083       .  S
C2105      C2106   1.417       .  A
C2106      N2107   1.423       .  S
N2107      O2111   1.260       .  A
N2107      O2112   1.262       .  A
N2110      O2114   1.261       .  A
N2110      O2113   1.262       .  A
C2115      C2116   1.421       .  A
C2115      C2120   1.433       .  A
C2115      H2122   1.081   1_554  S
C2117      C2118   1.419       .  A
C2117      N2124   1.426   1_655  S
C2118      H2123   1.083       .  S
C2119      C2120   1.423       .  A
C2120      N2121   1.425       .  S
N2121      O2125   1.262       .  A
N2121      O2126   1.262   1_545  A
N2124      O2127   1.261       .  A
O2129      C2132   1.263       .  A
C2130      O2139   1.272       .  A
C2130      O2135   1.264       .  A
C2130      C2409   1.476       .  S
O2131     Cd2134   2.713       .  S
C2132      O2140   1.268       .  A
C2132      C2392   1.476       .  S
C2133      C2381   1.529       .  S
Cd2134     O2141   2.503       .  S
Cd2134     O2139   2.432       .  S
Cd2134     O2135   2.419       .  S
C2137      C2423   1.549       .  S
O2142      C2145   1.268       .  A
C2143      O2152   1.269       .  A
C2143      O2148   1.261       .  A
C2143      C2406   1.467       .  S
O2144     Cd2147   2.527       .  S
C2145      O2153   1.268       .  A
C2145      C2353   1.456       .  S
C2146      O2151   1.264       .  A
C2146      O2149   1.268       .  A
C2146      C2336   1.494       .  S
Cd2147     O2154   2.529       .  S
Cd2147     O2152   2.452   1_455  S
Cd2147     O2148   2.434   1_455  S
Cd2147     O2151   2.449       .  S
Cd2147     O2149   2.534       .  S
C2150      C2364   1.508       .  S
O2155      C2158   1.275       .  A
O2155     Cd2160   2.378   1_655  S
C2156      O2165   1.270       .  A
C2156      O2161   1.275       .  A
C2156      C2308   1.473       .  S
O2157      C2163   1.269       .  A
O2157     Cd2160   2.384       .  S
C2158      O2166   1.273       .  A
C2158      C2297   1.475       .  S
C2159      O2164   1.280       .  A
C2159      O2162   1.272   1_455  A
C2159      C2325   1.516       .  S
Cd2160     O2167   2.538       .  S
Cd2160     O2166   2.434   1_455  S
Cd2160     O2164   2.549       .  S
Cd2160     O2162   2.519   1_455  S
C2163      O2167   1.285       .  A
C2163      C2339   1.498       .  S
O2168      C2171   1.258       .  A
O2168     Cd2173   2.361       .  S
C2169      O2178   1.273       .  A
C2169      O2174   1.265       .  A
C2169      C2280   1.460       .  S
O2170      C2176   1.274       .  A
O2170     Cd2173   2.613       .  S
C2171      O2179   1.268       .  A
C2171      C2350   1.459       .  S
C2172      O2177   1.268       .  A
C2172      O2175   1.268       .  A
C2172      C2252   1.502       .  S
Cd2173     O2180   2.465       .  S
Cd2173     O2179   2.492       .  S
Cd2173     O2178   2.452       .  S
Cd2173     O2174   2.350       .  S
Cd2173     O2177   2.460       .  S
Cd2173     O2175   2.530       .  S
C2176      O2180   1.258       .  A
C2176      C2269   1.516       .  S
O2181      C2184   1.263       .  A
O2181     Cd2186   2.397       .  S
C2182      O2191   1.265       .  A
C2182      O2187   1.271       .  A
C2182      C2311   1.466       .  S
O2183      C2189   1.271       .  A
O2183     Cd2186   2.544       .  S
C2184      O2192   1.272       .  A
C2184      C2283   1.478       .  S
C2185      C2238   1.513       .  S
Cd2186     O2193   2.543       .  S
Cd2186     O2192   2.504       .  S
Cd2186     O2190   2.698       .  S
Cd2186     O2188   2.535       .  S
C2189      O2193   1.273       .  A
C2189      C2378   1.528       .  S
C2194      C2224   1.607       .  S
C2194      C2322   1.619       .  S
C2194      C2420   1.627   1_465  S
C2195      C2227   1.599       .  S
C2195      C2241   1.606       .  S
O2196      C2199   1.267       .  A
O2196     Cd2201   2.338       .  S
C2197      O2206   1.271       .  A
C2197      O2202   1.269       .  A
C2197      C2294   1.465       .  S
O2198      C2204   1.277       .  A
O2198     Cd2201   2.593       .  S
C2199      O2207   1.272       .  A
C2199      C2395   1.465       .  S
C2200      O2205   1.266       .  A
C2200      O2203   1.277       .  A
C2200      C2255   1.496       .  S
Cd2201     O2208   2.498       .  S
Cd2201     O2207   2.470       .  S
Cd2201     O2206   2.453       .  S
Cd2201     O2202   2.371       .  S
Cd2201     O2205   2.459       .  S
Cd2201     O2203   2.532       .  S
C2204      O2208   1.264       .  A
C2204      C2210   1.516       .  S
C2209      C2210   1.405       .  A
C2209      C2214   1.418       .  A
C2209      H2216   1.084       .  S
C2210      C2211   1.406       .  A
C2211      C2212   1.411       .  A
C2211      N2218   1.424       .  S
C2212      C2213   1.422       .  A
C2212      H2217   1.074       .  S
C2213      C2214   1.441       .  A
C2214      N2215   1.430       .  S
N2215      O2219   1.261       .  A
N2215      O2220   1.263       .  A
N2218      O2222   1.260       .  A
N2218      O2221   1.260       .  A
C2223      C2224   1.420   1_655  A
C2223      H2230   1.084       .  S
C2225      N2232   1.433       .  S
C2226      H2231   1.083       .  S
C2228      N2229   1.430       .  S
N2229      O2233   1.261       .  A
N2229      O2234   1.260       .  A
N2232      O2236   1.262       .  A
C2237      C2238   1.401       .  A
C2237      C2242   1.414       .  A
C2237      H2244   1.086       .  S
C2239      C2240   1.405       .  A
C2239      N2246   1.427       .  S
C2240      H2245   1.083       .  S
C2241      C2242   1.438       .  A
C2242      N2243   1.423       .  S
N2243      O2247   1.251       .  A
N2243      O2248   1.261       .  A
N2246      O2250   1.262       .  A
N2246      O2249   1.262       .  A
C2251      C2252   1.405       .  A
C2251      C2256   1.401       .  A
C2251      H2258   1.084       .  S
C2252      C2253   1.419       .  A
C2253      C2254   1.413       .  A
C2253      N2260   1.426       .  S
C2254      C2255   1.405       .  A
C2254      H2259   1.084       .  S
C2255      C2256   1.415       .  A
C2256      N2257   1.427       .  S
N2257      O2261   1.261       .  A
N2257      O2262   1.262       .  A
N2260      O2264   1.262       .  A
N2260      O2263   1.262       .  A
C2265      C2266   1.408       .  A
C2265      C2270   1.405       .  A
C2265      H2272   1.077       .  S
C2266      C2267   1.441       .  A
C2267      C2268   1.421       .  A
C2267      N2274   1.432       .  S
C2268      C2269   1.405       .  A
C2268      H2273   1.083       .  S
C2269      C2270   1.418       .  A
C2270      N2271   1.429       .  S
N2271      O2275   1.262       .  A
N2271      O2276   1.262       .  A
N2274      O2278   1.261       .  A
N2274      O2277   1.262       .  A
C2279      C2280   1.391       .  A
C2279      C2284   1.392       .  A
C2279      H2286   1.085       .  S
C2280      C2281   1.408       .  A
C2281      C2282   1.403       .  A
C2281      N2288   1.432       .  S
C2282      C2283   1.405       .  A
C2282      H2287   1.083       .  S
C2283      C2284   1.419       .  A
C2284      N2285   1.428       .  S
N2285      O2289   1.262       .  A
N2285      O2290   1.262       .  A
N2288      O2292   1.263       .  A
N2288      O2291   1.262       .  A
C2293      C2294   1.402       .  A
C2293      C2298   1.397       .  A
C2293      H2300   1.084       .  S
C2294      C2295   1.409       .  A
C2295      C2296   1.394       .  A
C2295      N2302   1.428       .  S
C2296      C2297   1.402       .  A
C2296      H2301   1.084       .  S
C2297      C2298   1.412       .  A
C2298      N2299   1.428       .  S
N2299      O2303   1.262       .  A
N2299      O2304   1.262       .  A
N2302      O2306   1.262       .  A
N2302      O2305   1.262       .  A
C2307      C2308   1.402       .  A
C2307      C2312   1.401       .  A
C2307      H2314   1.084       .  S
C2308      C2309   1.419       .  A
C2309      C2310   1.402       .  A
C2309      N2316   1.429       .  S
C2310      C2311   1.399       .  A
C2310      H2315   1.084       .  S
C2311      C2312   1.411       .  A
C2312      N2313   1.429       .  S
N2313      O2317   1.262       .  A
N2313      O2318   1.261       .  A
N2316      O2320   1.262       .  A
N2316      O2319   1.262       .  A
C2321      C2322   1.421   1_655  A
C2321      C2326   1.413       .  A
C2321      H2328   1.077       .  S
C2323      C2324   1.414       .  A
C2323      N2330   1.432       .  S
C2324      H2329   1.084       .  S
C2325      C2326   1.412   1_455  A
C2326      N2327   1.428       .  S
N2327      O2331   1.261       .  A
N2327      O2332   1.262       .  A
N2330      O2334   1.261       .  A
C2335      C2340   1.403       .  A
C2335      H2342   1.084       .  S
C2336      C2337   1.411       .  A
C2337      C2338   1.404       .  A
C2337      N2344   1.428   1_455  S
C2338      C2339   1.411       .  A
C2338      H2343   1.084   1_455  S
C2340      N2341   1.428       .  S
N2341      O2345   1.262       .  A
N2341      O2346   1.262       .  A
N2344      O2348   1.262       .  A
N2344      O2347   1.262   1_655  A
C2349      C2350   1.396       .  A
C2349      C2354   1.383       .  A
C2349      H2356   1.085       .  S
C2350      C2351   1.406       .  A
C2351      C2352   1.402       .  A
C2351      N2358   1.429       .  S
C2352      C2353   1.406       .  A
C2352      H2357   1.084       .  S
C2353      C2354   1.404       .  A
C2354      N2355   1.427       .  S
N2355      O2359   1.262       .  A
N2355      O2360   1.261       .  A
N2358      O2362   1.262       .  A
N2358      O2361   1.262       .  A
C2363      C2368   1.413       .  A
C2363      H2370   1.084   1_455  S
C2364      C2365   1.412       .  A
C2365      C2366   1.403       .  A
C2365      N2372   1.425       .  S
C2366      C2367   1.418       .  A
C2366      H2371   1.080       .  S
C2368      N2369   1.427   1_455  S
N2369      O2373   1.259   1_556  A
N2369      O2374   1.262       .  A
N2372      O2376   1.260       .  A
N2372      O2375   1.262       .  A
C2377      C2378   1.414       .  A
C2377      C2382   1.420       .  A
C2377      H2384   1.083       .  S
C2378      C2379   1.419       .  A
C2379      C2380   1.422       .  A
C2379      N2386   1.428       .  S
C2380      C2381   1.414       .  A
C2381      C2382   1.420       .  A
C2382      N2383   1.429       .  S
N2383      O2387   1.262       .  A
N2386      O2389   1.262       .  A
C2391      C2392   1.402       .  A
C2391      C2396   1.396       .  A
C2391      H2398   1.084       .  S
C2392      C2393   1.417       .  A
C2393      C2394   1.405       .  A
C2393      N2400   1.425       .  S
C2394      C2395   1.399       .  A
C2394      H2399   1.085       .  S
C2395      C2396   1.407       .  A
C2396      N2397   1.425       .  S
N2397      O2401   1.261       .  A
N2397      O2402   1.260       .  A
N2400      O2404   1.260       .  A
N2400      O2403   1.261       .  A
C2405      C2406   1.398       .  A
C2405      C2410   1.393       .  A
C2405      H2412   1.085       .  S
C2406      C2407   1.412       .  A
C2407      C2408   1.396       .  A
C2407      N2414   1.428       .  S
C2408      C2409   1.402       .  A
C2408      H2413   1.084       .  S
C2409      C2410   1.417       .  A
C2410      N2411   1.429       .  S
N2411      O2415   1.262       .  A
N2411      O2416   1.262       .  A
N2414      O2418   1.262       .  A
N2414      O2417   1.262       .  A
C2419      C2420   1.423   1_565  A
C2419      C2424   1.437   1_565  A
C2419      H2426   1.073       .  S
C2421      C2422   1.413       .  A
C2421      N2428   1.433       .  S
C2422      H2427   1.084       .  S
C2423      C2424   1.427       .  A
C2424      N2425   1.425   1_545  S
N2425      O2429   1.262   1_565  A
N2425      O2430   1.262       .  A
N2428      O2431   1.263       .  A
