geometry optimzed in LAMMPS
_audit_creation_date              2020-11-30 
_audit_creation_method            'lammps2cif' 
_symmetry_space_group_name_H-M    'P1' 
_symmetry_Int_Tables_number       1 
_symmetry_cell_setting            triclinic 
loop_ 
_symmetry_equiv_pos_as_xyz 
  x,y,z 
_cell_length_a                    31.333343433256715 
_cell_length_b                    31.15638321774986 
_cell_length_c                    30.952628734516626 
_cell_angle_alpha                 90.0083697465912 
_cell_angle_beta                  90.30260753254423 
_cell_angle_gamma                 90.1738159746539 
loop_ 
_atom_site_label 
_atom_site_type_symbol 
_atom_site_fract_x 
_atom_site_fract_y 
_atom_site_fract_z 
_atom_site_charge 
C1          C  0.71154036  0.76040806  0.77537964     0.03690
C2          C  0.73110107  0.72269607  0.78997635    -0.12460
C3          C  0.76694007  0.70630953  0.76860411     0.01190
C4          C  0.78346446  0.72818729  0.73291772    -0.10990
C5          C  0.76450163  0.76641809  0.71849911     0.03680
C6          C  0.72914875  0.78278289  0.74041290    -0.10410
H7          H  0.71703575  0.70483279  0.81639731     0.09270
H8          H  0.80998416  0.71451841  0.71532510     0.06800
H9          H  0.71364625  0.81154238  0.72851630     0.06650
C10         C  0.27894566  0.76191764  0.20710874     0.03690
C11         C  0.30394893  0.73813252  0.23599000    -0.12460
C12         C  0.29348321  0.69508254  0.24596871     0.01190
C13         C  0.25811402  0.67670619  0.22490302    -0.10990
C14         C  0.22938466  0.70243961  0.20134588     0.03680
C15         C  0.24064692  0.74462901  0.19139053    -0.10410
H16         H  0.33074436  0.75395735  0.25149758     0.09270
H17         H  0.25001050  0.64342890  0.23010480     0.06800
H18         H  0.21890722  0.76474724  0.17313791     0.06650
C19         C  0.71452124  0.71437135  0.21499078     0.03690
C20         C  0.69847899  0.73614462  0.25096538    -0.12460
C21         C  0.72077666  0.77112469  0.26865868     0.01190
C22         C  0.75826394  0.78558444  0.24886775    -0.10990
C23         C  0.77420450  0.76439277  0.21234411     0.03680
C24         C  0.75230346  0.72886836  0.19553498    -0.10410
H25         H  0.67022307  0.72401970  0.26700110     0.09270
H26         H  0.77622728  0.81178507  0.26322664     0.06800
H27         H  0.76574287  0.71130598  0.16862954     0.06650
C28         C  0.21517771  0.28874535  0.27654388     0.03690
C29         C  0.23823472  0.25967180  0.30165173    -0.12460
C30         C  0.26470272  0.22911287  0.28167666     0.01190
C31         C  0.27531779  0.23599310  0.23788273    -0.10990
C32         C  0.25945625  0.27177819  0.21534185     0.03680
C33         C  0.22770056  0.29682128  0.23408071    -0.10410
H34         H  0.23102350  0.25770521  0.33569399     0.09270
H35         H  0.29455679  0.21323626  0.22032727     0.06800
H36         H  0.21105325  0.32068450  0.21493853     0.06650
C37         C  0.69011907  0.19759836  0.22790126     0.03690
C38         C  0.67827887  0.23712595  0.24523803    -0.12460
C39         C  0.70435105  0.25705057  0.27616166     0.01190
C40         C  0.74353222  0.23771420  0.28762313    -0.10990
C41         C  0.75372585  0.19605217  0.27286809     0.03680
C42         C  0.72334359  0.17469619  0.24694164    -0.10410
H43         H  0.65091142  0.25382868  0.23197245     0.09270
H44         H  0.76619732  0.25604687  0.30660706     0.06800
H45         H  0.72896782  0.14229757  0.23581156     0.06650
C46         C  0.77893576  0.23727407  0.67402413     0.03690
C47         C  0.79918462  0.22993565  0.71413131    -0.12460
C48         C  0.77974656  0.20488847  0.74657710     0.01190
C49         C  0.73928645  0.18752646  0.73793090    -0.10990
C50         C  0.72171440  0.19023940  0.69635019     0.03680
C51         C  0.74477453  0.21001725  0.66337891    -0.10410
H52         H  0.82858819  0.24591681  0.72184455     0.09270
H53         H  0.72060989  0.17346617  0.76369128     0.06800
H54         H  0.73173693  0.20977028  0.63096451     0.06650
C55         C  0.21373571  0.70655213  0.70579970     0.03690
C56         C  0.25113575  0.69145218  0.72531434    -0.12460
C57         C  0.26539214  0.70897568  0.76462870     0.01190
C58         C  0.24248940  0.74242228  0.78362341    -0.10990
C59         C  0.20529646  0.75844397  0.76398003     0.03680
C60         C  0.19020515  0.73914530  0.72586620    -0.10410
H61         H  0.26983035  0.66703473  0.70923594     0.09270
H62         H  0.25475718  0.75725787  0.81284299     0.06800
H63         H  0.16162528  0.75126753  0.71029715     0.06650
O64         O  0.11688611  0.07135746  0.00226997    -0.87790
C65         C  0.99046348  0.06549014  0.97151177     0.88240
Mg66       Mg  0.14557490  0.01315881  0.02109794     1.58150
O67         O  0.01517912  0.11746906  0.06771954    -0.87520
O68         O  0.10042854  0.13608394  0.02439485    -0.74850
C69         C  0.01314361  0.92480263  0.16575117     0.93290
O70         O  0.06440434  0.99607405  0.95415291    -0.74660
O71         O  0.04320388  0.91129774  0.14138322    -0.82170
Mg72       Mg  0.08260482  0.06767424  0.94297464     1.57960
C73         C  0.96552377  0.09454507  0.17700721     0.93210
O74         O  0.10451207  0.14175834  0.93462621    -0.80430
H75         H  0.05254883  0.15861458  0.10027643    -0.05780
C76         C  0.97466735  0.99363527  0.07170563     0.88150
O77         O  0.13956974  0.03248386  0.09262932    -0.74940
O78         O  0.02529091  0.08292466  0.97984568    -0.87710
O79         O  0.95648235  0.11486440  0.14235813    -0.80520
C80         C  0.92300236  0.16004292  0.00797071     0.93330
C81         C  0.08044142  0.17449112  0.93984601     0.93180
Mg82       Mg  0.02452002  0.03091681  0.14510412     1.57950
O83         O  0.00320927  0.96430980  0.16677988    -0.80440
O84         O  0.04634677  0.10034283  0.12907782    -0.74680
O85         O  0.95840357  0.15624835  0.98870343    -0.80520
O86         O  0.14085715  0.04231080  0.90349099    -0.82230
O87         O  0.14177595  0.93836203  0.10209608    -0.80550
C88         C  0.03828767  0.12699306  0.09892481     0.87620
O89         O  0.07735024  0.00790176  0.11318460    -0.87690
O90         O  0.98861894  0.02756050  0.08749776    -0.87800
O91         O  0.99861773  0.96130973  0.06493637    -0.74850
Mg92       Mg  0.02813117  0.14405620  0.00747480     1.57970
O93         O  0.91768455  0.14521652  0.04601244    -0.82230
H94         H  0.15976508  0.11027221  0.03043786    -0.05950
O95         O  0.08531690  0.98247451  0.02079857    -0.87500
H96         H  0.05738951  0.93794637  0.98335919    -0.05780
H97         H  0.11758771  0.03733015  0.15399535    -0.05950
C98         C  0.06865870  0.97065806  0.98629056     0.87590
C99         C  0.12724455  0.10578571  0.01944110     0.88180
C100        C  0.11167223  0.02588180  0.12152746     0.88230
H101        H  0.94136876  0.99175136  0.06253607    -0.05930
O102        O  0.96054595  0.06318247  0.99944232    -0.74960
Mg103      Mg  0.06944314  0.94826323  0.08078182     1.58000
H104        H  0.98524894  0.05198308  0.93973439    -0.05950
C105        C  0.16096592  0.00811355  0.91398419     0.93210
O106        O  0.17115630  0.95030237  0.03900010    -0.82190
C107        C  0.17488484  0.94509773  0.07910422     0.93270
O108        O  0.04102376  0.16888187  0.94320752    -0.82170
Mg109      Mg  0.95566013  0.08652317  0.07091944     1.58180
O110        O  0.16006391  0.99350161  0.95223016    -0.80510
O111        O  0.96781682  0.05429199  0.17644152    -0.82200
C112        C  0.13735981  0.28036603  0.92588410     0.03690
C113        C  0.12903816  0.23608663  0.92419070    -0.12460
C114        C  0.09698062  0.21825940  0.94926973     0.01190
C115        C  0.07589200  0.24455396  0.97979358    -0.10990
C116        C  0.08601203  0.28853805  0.98461263     0.03680
C117        C  0.11672388  0.30644667  0.95670170    -0.10410
H118        H  0.14360599  0.21668542  0.89919769     0.09270
H119        H  0.04998792  0.23117505  0.99862392     0.06800
H120        H  0.12151106  0.34088983  0.95603791     0.06650
C121        C  0.92806501  0.13491164  0.27739671     0.03690
C122        C  0.94277543  0.14234104  0.23520634    -0.12460
C123        C  0.97393879  0.11566287  0.21882607     0.01190
C124        C  0.00211154  0.09516999  0.24771101    -0.10990
C125        C  0.99265395  0.09288535  0.29185645     0.03680
C126        C  0.95373193  0.11083611  0.30621040    -0.10410
H127        H  0.92256710  0.15942150  0.21245456     0.09270
H128        H  0.02702484  0.07473367  0.23492540     0.06800
H129        H  0.94188523  0.10288225  0.33803824     0.06650
C130        C  0.27740123  0.92901104  0.14070032     0.03690
C131        C  0.23367077  0.92760414  0.13070537    -0.12460
C132        C  0.21728778  0.95355895  0.09821475     0.01190
C133        C  0.24391090  0.98449892  0.07886086    -0.10990
C134        C  0.28729719  0.98799707  0.08991274     0.03680
C135        C  0.30417405  0.95961235  0.12087609    -0.10410
H136        H  0.21380593  0.90234763  0.14405332     0.09270
H137        H  0.23157523  0.00396441  0.05258439     0.06800
H138        H  0.33837277  0.95811858  0.12600880     0.06650
O139        O  0.86010549  0.57421203  0.47458302    -0.87790
C140        C  0.98662487  0.57569010  0.50385260     0.88240
Mg141      Mg  0.83419844  0.51412594  0.45828754     1.58150
O142        O  0.95966535  0.62470431  0.40630451    -0.87520
O143        O  0.87292661  0.63883813  0.44983714    -0.74850
C144        C  0.96528898  0.43147806  0.31125185     0.93290
O145        O  0.91707410  0.50326627  0.52297729    -0.74660
O146        O  0.93601315  0.41696503  0.33605052    -0.82170
Mg147      Mg  0.89501935  0.57394307  0.53311890     1.57960
C148        C  0.00987117  0.60258006  0.29706796     0.93210
O149        O  0.86927473  0.64612482  0.54049648    -0.80430
H150        H  0.92181989  0.66471049  0.37322827    -0.05780
C151        C  0.00421420  0.50215027  0.40289484     0.88150
O152        O  0.83681279  0.53319802  0.38625929    -0.74940
O153        O  0.95126696  0.59175929  0.49546852    -0.87710
O154        O  0.01929126  0.62239984  0.33204442    -0.80520
C155        C  0.05000534  0.67244957  0.46515562     0.93330
C156        C  0.89116852  0.68024248  0.53429771     0.93180
Mg157      Mg  0.95123025  0.53719094  0.33074633     1.57950
O158        O  0.97392100  0.47129005  0.30971143    -0.80440
O159        O  0.92820648  0.60599160  0.34557900    -0.74680
O160        O  0.01292406  0.67019927  0.48123591    -0.80520
O161        O  0.83787753  0.54721520  0.57309103    -0.82230
O162        O  0.83818406  0.44026449  0.37805985    -0.80550
C163        C  0.93639001  0.63334525  0.37503829     0.87620
O164        O  0.89993326  0.51254859  0.36457413    -0.87690
O165        O  0.98869525  0.53550077  0.38756681    -0.87800
O166        O  0.98154306  0.46895460  0.41046422    -0.74850
Mg167      Mg  0.94462173  0.65184291  0.46549902     1.57970
O168        O  0.05884231  0.65397862  0.42948912    -0.82230
H169        H  0.81492259  0.60954438  0.44571539    -0.05950
O170        O  0.89585217  0.48755638  0.45689315    -0.87500
H171        H  0.92716368  0.44540080  0.49419705    -0.05780
H172        H  0.85738251  0.53931534  0.32445120    -0.05950
C173        C  0.91390920  0.47726569  0.49114461     0.87590
C174        C  0.84775845  0.60733265  0.45637809     0.88180
C175        C  0.86455066  0.52841570  0.35684141     0.88230
H176        H  0.03782670  0.50154480  0.41095737    -0.05930
O177        O  0.01612483  0.57303878  0.47556981    -0.74960
Mg178      Mg  0.91075207  0.45331781  0.39694808     1.58000
H179        H  0.99251738  0.56327657  0.53594693    -0.05950
C180        C  0.82173870  0.51031921  0.56497817     0.93210
O181        O  0.81139583  0.44980861  0.44256819    -0.82190
C182        C  0.80595733  0.44502770  0.40267557     0.93270
O183        O  0.93071060  0.67735824  0.52932282    -0.82170
Mg184      Mg  0.02046656  0.59512652  0.40389823     1.58180
O185        O  0.82449847  0.49342718  0.52783564    -0.80510
O186        O  0.00606084  0.56236046  0.29700403    -0.82200
C187        C  0.70064638  0.42272239  0.34921341     0.03690
C188        C  0.74488203  0.42359507  0.35609600    -0.12460
C189        C  0.76249499  0.45188026  0.38579279     0.01190
C190        C  0.73635892  0.48314459  0.40515922    -0.10990
C191        C  0.69232180  0.48503815  0.39650265     0.03680
C192        C  0.67425251  0.45380523  0.36879149    -0.10410
H193        H  0.76469233  0.39840872  0.34272815     0.09270
H194        H  0.74991024  0.50454225  0.42926736     0.06800
H195        H  0.63989494  0.45128003  0.36557262     0.06650
C196        C  0.05340213  0.64492070  0.20037814     0.03690
C197        C  0.03013398  0.62038896  0.16968641    -0.12460
C198        C  0.99016544  0.60244047  0.18081369     0.01190
C199        C  0.97770848  0.60389823  0.22417886    -0.10990
C200        C  0.00375195  0.62426446  0.25515480     0.03680
C201        C  0.03514209  0.65211882  0.24115379    -0.10410
H202        H  0.04415382  0.61235631  0.13886286     0.09270
H203        H  0.95202985  0.58307934  0.23488967     0.06800
H204        H  0.05215244  0.67093798  0.26518274     0.06650
C205        C  0.83204473  0.78305371  0.55433807     0.03690
C206        C  0.84096807  0.73890895  0.55390869    -0.12460
C207        C  0.87186318  0.72283292  0.52643120     0.01190
C208        C  0.89049139  0.75049464  0.49564290    -0.10990
C209        C  0.88037502  0.79448185  0.49396241     0.03680
C210        C  0.85123217  0.81081171  0.52413573    -0.10410
H211        H  0.82814210  0.71831610  0.57898407     0.09270
H212        H  0.91580722  0.73850980  0.47518367     0.06800
H213        H  0.84688345  0.84517357  0.52707774     0.06650
O214        O  0.99995070  0.86533900  0.41055422    -0.87790
C215        C  0.97645709  0.99419539  0.41432819     0.88240
Mg216      Mg  0.01696197  0.83767963  0.47024641     1.58150
O217        O  0.07024370  0.96554335  0.36190008    -0.87520
O218        O  0.02323959  0.88082214  0.34564140    -0.74850
C219        C  0.16461987  0.96806282  0.55607150     0.93290
O220        O  0.95336379  0.92098959  0.48517573    -0.74660
O221        O  0.13869519  0.93972350  0.57045041    -0.82170
Mg222      Mg  0.94307673  0.90221812  0.41330146     1.57960
C223        C  0.18236011  0.01315950  0.38413233     0.93210
O224        O  0.93420457  0.87978417  0.33970123    -0.80430
H225        H  0.10068961  0.92663819  0.32092878    -0.05780
C226        C  0.07542010  0.00922722  0.48490524     0.88150
O227        O  0.08786535  0.84104816  0.45152943    -0.74940
O228        O  0.98293685  0.95843287  0.39784388    -0.87710
O229        O  0.14765594  0.02314760  0.36452568    -0.80520
C230        C  0.01431626  0.05922080  0.31752356     0.93330
C231        C  0.94033069  0.90390295  0.30694120     0.93180
Mg232      Mg  0.14553737  0.95425581  0.44937803     1.57950
O233        O  0.16705567  0.97619441  0.51596400    -0.80440
O234        O  0.12929146  0.93204390  0.37976164    -0.74680
O235        O  0.99408268  0.02430695  0.32262604    -0.80520
O236        O  0.90201765  0.84446009  0.43796389    -0.82230
O237        O  0.09659108  0.84199776  0.54611616    -0.80550
C238        C  0.09999342  0.94117079  0.35264145     0.87620
O239        O  0.10976223  0.90412794  0.47353683    -0.87690
O240        O  0.09143683  0.99420631  0.45152922    -0.87800
O241        O  0.06621028  0.98588437  0.51745391    -0.74850
Mg242      Mg  0.00953934  0.95396557  0.33621234     1.57970
O243        O  0.05252749  0.06370034  0.33142517    -0.82230
H244        H  0.02672073  0.82119919  0.37231461    -0.05950
O245        O  0.01865082  0.89928477  0.49897797    -0.87500
H246        H  0.98255559  0.92795587  0.54368332    -0.05780
H247        H  0.14915618  0.86156749  0.44653449    -0.05950
C248        C  0.98505822  0.91649760  0.51082523     0.87590
C249        C  0.01699221  0.85422278  0.37631899     0.88180
C250        C  0.11716530  0.86871062  0.45724751     0.88230
H251        H  0.06789050  0.04305386  0.48593619    -0.05930
O252        O  0.00529366  0.02343396  0.41521572    -0.74960
Mg253      Mg  0.07832527  0.91465857  0.53331565     1.58000
H254        H  0.94551243  0.00092869  0.42801882    -0.05950
C255        C  0.91117277  0.82342159  0.47229203     0.93210
O256        O  0.03294796  0.81467108  0.53522015    -0.82190
C257        C  0.07243700  0.80951141  0.53983037     0.93270
O258        O  0.94475153  0.94339295  0.31271080    -0.82170
Mg259      Mg  0.07619805  0.02597092  0.39160130     1.58180
O260        O  0.94830576  0.82447241  0.48885126    -0.80510
O261        O  0.18265962  0.00725887  0.42436878    -0.82200
C262        C  0.13594738  0.70690031  0.54501040     0.03690
C263        C  0.12410812  0.74988308  0.55130996    -0.12460
C264        C  0.08980190  0.76705468  0.52882545     0.01190
C265        C  0.06906926  0.74211874  0.49715068    -0.10990
C266        C  0.08108068  0.69958006  0.48899077     0.03680
C267        C  0.11466268  0.68166674  0.51352080    -0.10410
H268        H  0.13909239  0.76870672  0.57671960     0.09270
H269        H  0.04164614  0.75512377  0.48015806     0.06800
H270        H  0.12180392  0.64778501  0.51074356     0.06650
C271        C  0.28071074  0.05628966  0.34200762     0.03690
C272        C  0.23836044  0.04198129  0.33682429    -0.12460
C273        C  0.22391205  0.00854828  0.36229330     0.01190
C274        C  0.25390522  0.97992923  0.38029537    -0.10990
C275        C  0.29767490  0.98972230  0.38028794     0.03680
C276        C  0.31072919  0.02950687  0.36279688    -0.10410
H277        H  0.21489863  0.06329743  0.32249930     0.09270
H278        H  0.24268382  0.95367580  0.40031641     0.06800
H279        H  0.34268248  0.04133603  0.36924089     0.06650
C280        C  0.93299227  0.84051446  0.20325539     0.03690
C281        C  0.96341768  0.86157999  0.17709158    -0.12460
C282        C  0.98803893  0.89558365  0.19425386     0.01190
C283        C  0.98069581  0.90823055  0.23733459    -0.10990
C284        C  0.95062043  0.88682693  0.26360397     0.03440
C285        C  0.92835180  0.85211137  0.24678140    -0.10410
H286        H  0.96521965  0.85401789  0.14299087     0.09270
H287        H  0.99757976  0.93596694  0.25000382     0.06800
H288        H  0.90394946  0.83687199  0.26629405     0.06650
O289        O  0.50301378  0.36567341  0.90968037    -0.87790
C290        C  0.46923264  0.49214497  0.91383027     0.88240
Mg291      Mg  0.52051955  0.33524131  0.96705073     1.58150
O292        O  0.56884260  0.47282357  0.86716644    -0.87520
O293        O  0.52897708  0.38379351  0.84666068    -0.74850
C294        C  0.65928375  0.46779087  0.06481578     0.93290
O295        O  0.45399779  0.41679247  0.98451082    -0.74660
O296        O  0.63752769  0.43451318  0.07530542    -0.82170
Mg297      Mg  0.44410956  0.39911822  0.91222916     1.57960
C298        C  0.67202725  0.53126404  0.90140204     0.93210
O299        O  0.43744234  0.37667258  0.83864689    -0.80430
H300        H  0.60582094  0.44126092  0.82536537    -0.05780
C301        C  0.56548488  0.50761621  0.99468877     0.88150
O302        O  0.59177352  0.34464640  0.94917892    -0.74940
O303        O  0.48011343  0.45766103  0.89714514    -0.87710
O304        O  0.63899878  0.53830771  0.87818346    -0.80520
C305        C  0.50989164  0.56176706  0.81939877     0.93330
C306        C  0.44438694  0.40001141  0.80547520     0.93180
Mg307      Mg  0.64084523  0.46439989  0.95784885     1.57950
O308        O  0.65854494  0.48231673  0.02655131    -0.80440
O309        O  0.63088127  0.44616061  0.88586632    -0.74680
O310        O  0.49462228  0.52401037  0.81968101    -0.80520
O311        O  0.40438145  0.34007836  0.93641640    -0.82230
O312        O  0.59898259  0.33610045  0.04189042    -0.80550
C313        C  0.60183163  0.45320324  0.85789168     0.87620
O314        O  0.61093801  0.40702595  0.97585569    -0.87690
O315        O  0.58171746  0.49631205  0.96000881    -0.87800
O316        O  0.56055177  0.48151404  0.02611310    -0.74850
Mg317      Mg  0.51156701  0.45545348  0.83714263     1.57970
O318        O  0.54307288  0.57161395  0.84150725    -0.82230
H319        H  0.53337095  0.32371311  0.87181672    -0.05950
O320        O  0.51906382  0.39461140  0.99986393    -0.87500
H321        H  0.48156900  0.42240528  0.04393931    -0.05780
H322        H  0.65178457  0.36908007  0.94440433    -0.05950
C323        C  0.48499466  0.41152659  0.01097289     0.87590
C324        C  0.52197612  0.35615830  0.87606158     0.88180
C325        C  0.61971446  0.37358365  0.95627441     0.88230
H326        H  0.55494363  0.54042794  0.99829011    -0.05930
O327        O  0.49545778  0.52323343  0.91889463    -0.74960
Mg328      Mg  0.57787490  0.40971157  0.03564526     1.58000
H329        H  0.43670768  0.49585529  0.92467366    -0.05950
C330        C  0.41445605  0.31787928  0.96968123     0.93210
O331        O  0.53670188  0.30623916  0.02885600    -0.82190
C332        C  0.57615813  0.30264905  0.03467086     0.93270
O333        O  0.44936396  0.43969884  0.80985150    -0.82170
Mg334      Mg  0.56676387  0.53220142  0.90096322     1.58180
O335        O  0.45223999  0.31814476  0.98468045    -0.80510
O336        O  0.66816723  0.52674166  0.94143372    -0.82200
C337        C  0.42204992  0.35203895  0.69710304     0.03690
C338        C  0.42222956  0.35655026  0.74216803    -0.12460
C339        C  0.45250844  0.38238732  0.76216728     0.01190
C340        C  0.48595557  0.40010479  0.73745676    -0.10990
C341        C  0.48763861  0.39457966  0.69245094     0.03680
C342        C  0.45474644  0.37081188  0.67215294    -0.10410
H343        H  0.39558718  0.34443695  0.76086922     0.09270
H344        H  0.50840660  0.42198952  0.75273111     0.06800
H345        H  0.45253979  0.37001558  0.63721798     0.06650
C346        C  0.63541675  0.19976384  0.05517571     0.03690
C347        C  0.62444765  0.24343339  0.05615215    -0.12460
C348        C  0.59454255  0.25967857  0.02761571     0.01190
C349        C  0.57694104  0.23239137  0.99573645    -0.10990
C350        C  0.58848148  0.18878694  0.99294226     0.03680
C351        C  0.61821394  0.17256454  0.02295880    -0.10410
H352        H  0.63595442  0.26386761  0.08213363     0.09270
H353        H  0.55185040  0.24440787  0.97475390     0.06800
H354        H  0.62475653  0.13845255  0.02390177     0.06650
C355        C  0.77463309  0.54375560  0.84004676     0.03690
C356        C  0.73112169  0.54660990  0.85015997    -0.12460
C357        C  0.71414099  0.52154543  0.88287810     0.01190
C358        C  0.73992219  0.49027692  0.90289296    -0.10990
C359        C  0.78312140  0.48547592  0.89212714     0.03680
C360        C  0.80068492  0.51296988  0.86070353    -0.10410
H361        H  0.71179174  0.57187753  0.83605297     0.09270
H362        H  0.72712935  0.47155572  0.92941299     0.06800
H363        H  0.83481749  0.51320718  0.85528685     0.06650
O364        O  0.90967892  0.47718359  0.11457962    -0.87790
C365        C  0.90637212  0.50565447  0.98686610     0.88240
Mg366      Mg  0.97019340  0.46390834  0.14092666     1.58150
O367        O  0.86134785  0.40728329  0.01497569    -0.87520
O368        O  0.84592387  0.45065374  0.10258665    -0.74850
C369        C  0.05664539  0.31667931  0.00994131     0.93290
O370        O  0.97812896  0.52649786  0.05664037    -0.74660
O371        O  0.07012476  0.34224639  0.03956935    -0.82170
Mg372      Mg  0.90752335  0.53476344  0.07922327     1.57960
C373        C  0.88614564  0.30025618  0.96433154     0.93210
O374        O  0.83544385  0.53992733  0.10536075    -0.80430
H375        H  0.82301454  0.37342901  0.05375450    -0.05780
C376        C  0.98370366  0.40670394  0.96979729     0.88150
O377        O  0.95308112  0.39158538  0.13901642    -0.74940
O378        O  0.89060165  0.49689957  0.02255995    -0.87710
O379        O  0.86549262  0.33420571  0.95469075    -0.80520
C380        C  0.81083510  0.46297187  0.92365718     0.93330
C381        C  0.80148783  0.53270675  0.08337123     0.93180
Mg382      Mg  0.95077045  0.33468715  0.02339031     1.57950
O383        O  0.01715716  0.31439332  0.00042957    -0.80440
O384        O  0.88212606  0.34788440  0.04688935    -0.74680
O385        O  0.81242429  0.47911866  0.96118743    -0.80520
O386        O  0.93248832  0.57500838  0.13705997    -0.82230
O387        O  0.04527227  0.38616398  0.13881964    -0.80550
C388        C  0.85397716  0.37615061  0.03872396     0.87620
O389        O  0.97457828  0.36892475  0.07568534    -0.87690
O390        O  0.95077608  0.39127583  0.98571335    -0.87800
O391        O  0.01679581  0.41470631  0.99261599    -0.74850
Mg392      Mg  0.83201569  0.46489799  0.02995579     1.57970
O393        O  0.83103892  0.42864279  0.91453895    -0.82230
H394        H  0.87592259  0.44817289  0.16100199    -0.05950
O395        O  0.99647293  0.46179182  0.07860283    -0.87500
H396        H  0.03648402  0.49995936  0.04586011    -0.05780
H397        H  0.94838463  0.32955159  0.11928893    -0.05950
C398        C  0.00513971  0.49589105  0.05974628     0.87590
C399        C  0.87740898  0.45834530  0.12764552     0.88180
C400        C  0.95862442  0.36179432  0.11150271     0.88230
H401        H  0.98409378  0.41427347  0.93571366    -0.05930
O402        O  0.91040739  0.47743807  0.95720185    -0.74960
Mg403      Mg  0.03243874  0.40281301  0.06456192     1.58000
H404        H  0.91748232  0.53799468  0.98090491    -0.05950
C405        C  0.96971109  0.56960571  0.15315720     0.93210
O406        O  0.03455183  0.45072121  0.16441144    -0.82190
C407        C  0.03930268  0.41129144  0.17090096     0.93270
O408        O  0.80421535  0.52724739  0.04341912    -0.82170
Mg409      Mg  0.89069781  0.40568080  0.95333421     1.58180
O410        O  0.98939677  0.53430840  0.14923725    -0.80510
O411        O  0.92619416  0.30121351  0.96746636    -0.82200
C412        C  0.69997544  0.55074767  0.14494645     0.03690
C413        C  0.67233265  0.52029162  0.12559903    -0.12460
C414        C  0.68836244  0.49069263  0.09533184     0.01190
C415        C  0.73184598  0.49347843  0.08421674    -0.10990
C416        C  0.75930095  0.52443343  0.10301924     0.03680
C417        C  0.74358998  0.55124438  0.13487582    -0.10410
H418        H  0.63826851  0.52232783  0.13100649     0.09270
H419        H  0.74362884  0.47342893  0.05825795     0.06800
H420        H  0.76406932  0.57627943  0.14793135     0.06650
C421        C  0.05053646  0.35259609  0.27675517     0.03690
C422        C  0.05471654  0.36306668  0.23289909    -0.12460
C423        C  0.02991121  0.39506140  0.21469878     0.01190
C424        C  0.99817400  0.41487296  0.24001354    -0.10990
C425        C  0.99152117  0.40304678  0.28345173     0.03680
C426        C  0.01831854  0.37171641  0.30188267    -0.10410
H427        H  0.08039085  0.34930518  0.21406894     0.09270
H428        H  0.97953312  0.44085285  0.22635751     0.06800
H429        H  0.01673611  0.36508840  0.33619865     0.06650
C430        C  0.84728905  0.20273636  0.92148021     0.03690
C431        C  0.87245449  0.17343893  0.94561457    -0.12460
C432        C  0.88979214  0.18592222  0.98612937     0.01190
C433        C  0.88639879  0.22899657  0.99838508    -0.10990
C434        C  0.86547272  0.25848796  0.97133811     0.03680
C435        C  0.83880536  0.24327191  0.93916547    -0.10410
H436        H  0.88105894  0.14272180  0.93187303     0.09270
H437        H  0.90635277  0.24089304  0.02456094     0.06800
H438        H  0.82032709  0.26636134  0.92075117     0.06650
O439        O  0.47272639  0.11009274  0.90738221    -0.87790
C440        C  0.50586250  0.98324630  0.91418295     0.88240
Mg441      Mg  0.45359676  0.14134752  0.96352182     1.58150
O442        O  0.40736186  0.00243795  0.86420436    -0.87520
O443        O  0.44796124  0.09116277  0.84382809    -0.74850
C444        C  0.31558762  0.01033086  0.05905878     0.93290
O445        O  0.52084946  0.05992899  0.98467124    -0.74660
O446        O  0.33765924  0.04328026  0.06954280    -0.82170
Mg447      Mg  0.53170062  0.07651322  0.91266468     1.57960
C448        C  0.30161054  0.94416270  0.89558738     0.93210
O449        O  0.54006772  0.09780471  0.83952091    -0.80430
H450        H  0.37129832  0.03309830  0.82054678    -0.05780
C451        C  0.40882285  0.96845944  0.99130447     0.88150
O452        O  0.38297489  0.13143071  0.94373239    -0.74940
O453        O  0.49579583  0.01777156  0.89690974    -0.87710
O454        O  0.33536679  0.93706510  0.87360168    -0.80520
C455        C  0.46749361  0.91306724  0.81894379     0.93330
C456        C  0.53347772  0.07492579  0.80588635     0.93180
Mg457      Mg  0.33385525  0.01214850  0.95223638     1.57950
O458        O  0.31572926  0.99557138  0.02086977    -0.80440
O459        O  0.34487391  0.02921958  0.88025838    -0.74680
O460        O  0.48299924  0.95071015  0.82022820    -0.80520
O461        O  0.57063458  0.13616256  0.93757035    -0.82230
O462        O  0.37429703  0.13965866  0.03653123    -0.80550
C463        C  0.37456963  0.02178449  0.85341638     0.87620
O464        O  0.36462048  0.06894463  0.97023168    -0.87690
O465        O  0.39228838  0.97904408  0.95633979    -0.87800
O466        O  0.41420332  0.99517602  0.02220929    -0.74850
Mg467      Mg  0.46544402  0.01943994  0.83586152     1.57970
O468        O  0.43330352  0.90341353  0.83922123    -0.82230
H469        H  0.44339558  0.15162321  0.86794300    -0.05950
O470        O  0.45548007  0.08231056  0.99697524    -0.87500
H471        H  0.49191839  0.05599750  0.04322334    -0.05780
H472        H  0.32339297  0.10611665  0.93794910    -0.05950
C473        C  0.48930004  0.06593885  0.00985130     0.87590
C474        C  0.45454627  0.11919682  0.87301528     0.88180
C475        C  0.35543236  0.10216563  0.95043703     0.88230
H476        H  0.41943831  0.93573558  0.99554551    -0.05930
O477        O  0.47927400  0.95229962  0.91816156    -0.74960
Mg478      Mg  0.39668195  0.06699167  0.03099406     1.58000
H479        H  0.53801907  0.97929981  0.92635918    -0.05950
C480        C  0.55905722  0.15941088  0.96949846     0.93210
O481        O  0.43593332  0.17091141  0.02460251    -0.82190
C482        C  0.39634913  0.17355492  0.02983373     0.93270
O483        O  0.52797159  0.03519869  0.80952224    -0.82170
Mg484      Mg  0.40813853  0.94314291  0.89797700     1.58180
O485        O  0.52076979  0.15951812  0.98244814    -0.80510
O486        O  0.30447375  0.95069690  0.93552109    -0.82200
C487        C  0.55050190  0.13702513  0.70322858     0.03690
C488        C  0.51858720  0.11948479  0.67605935    -0.12460
C489        C  0.49028825  0.08836597  0.69226035     0.01190
C490        C  0.49413975  0.07597708  0.73579436    -0.10990
C491        C  0.52561058  0.09391228  0.76303245     0.03680
C492        C  0.55249884  0.12531950  0.74698866    -0.10410
H493        H  0.51885682  0.12648657  0.64177453     0.09270
H494        H  0.47435822  0.04995192  0.74769503     0.06800
H495        H  0.57823946  0.13714728  0.76737546     0.06650
C496        C  0.33245046  0.27361549  0.04841506     0.03690
C497        C  0.34368110  0.23010607  0.04822987    -0.12460
C498        C  0.37688946  0.21594638  0.02260517     0.01190
C499        C  0.39605376  0.24457550  0.99323610    -0.10990
C500        C  0.38419087  0.28797895  0.99117729     0.03680
C501        C  0.35238559  0.30268669  0.01962672    -0.10410
H502        H  0.33021668  0.20848022  0.07205668     0.09270
H503        H  0.42264982  0.23371500  0.97381892     0.06800
H504        H  0.34608430  0.33674720  0.02227999     0.06650
C505        C  0.19757956  0.92030871  0.83893193     0.03690
C506        C  0.17098925  0.95217375  0.85662209    -0.12460
C507        C  0.18847479  0.98422503  0.88351920     0.01190
C508        C  0.23245385  0.98297047  0.89274543    -0.10990
C509        C  0.25896789  0.95049845  0.87595312     0.03680
C510        C  0.24164969  0.92051700  0.84759973    -0.10410
H511        H  0.13669600  0.94970120  0.85262664     0.09270
H512        H  0.24540448  0.00526417  0.91637569     0.06800
H513        H  0.26141684  0.89442092  0.83609301     0.06650
O514        O  0.61515690  0.57675457  0.50961979    -0.87790
C515        C  0.49017215  0.56797163  0.47240659     0.88240
Mg516      Mg  0.64808617  0.52409496  0.53318150     1.58150
O517        O  0.50755159  0.61927364  0.57188676    -0.87520
O518        O  0.59605946  0.64061375  0.53166114    -0.74850
C519        C  0.51290315  0.42613513  0.66729472     0.93290
O520        O  0.56750940  0.49728790  0.46494418    -0.74660
O521        O  0.54921834  0.41742652  0.65080802    -0.82170
Mg522      Mg  0.58283957  0.56830760  0.44973419     1.57960
C523        C  0.44711264  0.58612575  0.67596770     0.93210
O524        O  0.60385812  0.64100865  0.43789375    -0.80430
H525        H  0.53666922  0.66312032  0.60915467    -0.05780
C526        C  0.47730545  0.49189723  0.57039875     0.88150
O527        O  0.63443012  0.54663479  0.60304091    -0.74940
O528        O  0.52425043  0.58500489  0.48385231    -0.87710
O529        O  0.44144192  0.60925035  0.64239064    -0.80520
C530        C  0.41957669  0.66155955  0.50799527     0.93330
C531        C  0.58087776  0.67437076  0.44341887     0.93180
Mg532      Mg  0.51474031  0.53206417  0.64784749     1.57950
O533        O  0.49698348  0.46336039  0.66424378    -0.80440
O534        O  0.53153069  0.60409589  0.63677933    -0.74680
O535        O  0.45711550  0.66022189  0.49305169    -0.80520
O536        O  0.64169700  0.54151572  0.41245875    -0.82230
O537        O  0.64751688  0.45417075  0.61803034    -0.80550
C538        C  0.52557586  0.63038802  0.60580380     0.87620
O539        O  0.57388780  0.51628450  0.62164319    -0.87690
O540        O  0.48621376  0.52733318  0.58658894    -0.87800
O541        O  0.50455302  0.46144981  0.56859302    -0.74850
Mg542      Mg  0.52509720  0.64644242  0.51255173     1.57970
O543        O  0.40962413  0.64247635  0.54312353    -0.82230
H544        H  0.65638686  0.61762647  0.53731805    -0.05950
O545        O  0.59155697  0.48735195  0.53135027    -0.87500
H546        H  0.56553806  0.43995325  0.49621444    -0.05780
H547        H  0.60758007  0.55334213  0.66225506    -0.05950
C548        C  0.57491427  0.47335263  0.49761588     0.87590
C549        C  0.62410621  0.61177506  0.52624167     0.88180
C550        C  0.60527777  0.53896797  0.63052786     0.88230
H551        H  0.44560895  0.48664994  0.55741803    -0.05930
O552        O  0.45871374  0.56415043  0.49818710    -0.74960
Mg553      Mg  0.57539629  0.45540275  0.59129532     1.58000
H554        H  0.48708832  0.55591600  0.43977766    -0.05950
C555        C  0.66529813  0.51085437  0.42603938     0.93210
O556        O  0.68180902  0.46851309  0.55766630    -0.82190
C557        C  0.68221626  0.46256467  0.59791292     0.93270
O558        O  0.54131958  0.67039821  0.44827874    -0.82170
Mg559      Mg  0.44907918  0.58459869  0.56958051     1.58180
O560        O  0.66722792  0.50129549  0.46592238    -0.80510
O561        O  0.45119723  0.54640251  0.67172716    -0.82200
C562        C  0.64470003  0.77646710  0.43047851     0.03690
C563        C  0.63283469  0.73306195  0.42742887    -0.12460
C564        C  0.59942901  0.71717279  0.45197493     0.01190
C565        C  0.57993583  0.74410720  0.48260874    -0.10990
C566        C  0.59217997  0.78727160  0.48762473     0.03680
C567        C  0.62468785  0.80362828  0.46087025    -0.10410
H568        H  0.64674495  0.71283717  0.40271746     0.09270
H569        H  0.55315326  0.73208047  0.50113496     0.06800
H570        H  0.63179434  0.83767436  0.46100655     0.06650
C571        C  0.42833885  0.64243981  0.78124721     0.03690
C572        C  0.45821750  0.62207096  0.80849935    -0.12460
C573        C  0.48775934  0.59299358  0.79105982     0.01190
C574        C  0.48570783  0.58401389  0.74654448    -0.10990
C575        C  0.45545087  0.60409751  0.71936331     0.03680
C576        C  0.42872493  0.63502689  0.73652352    -0.10410
H577        H  0.45551531  0.62541451  0.84322144     0.09270
H578        H  0.50560994  0.55868724  0.73364760     0.06800
H579        H  0.40398266  0.64878823  0.71619575     0.06650
C580        C  0.78191845  0.41466894  0.62740193     0.03690
C581        C  0.81039363  0.44386836  0.60795882    -0.12460
C582        C  0.79691573  0.48570716  0.59714958     0.01190
C583        C  0.75363854  0.49599645  0.60257643    -0.10990
C584        C  0.72460067  0.46534470  0.61893619     0.03680
C585        C  0.74054104  0.42848414  0.63806735    -0.10410
H586        H  0.84125971  0.43284437  0.59702639     0.09270
H587        H  0.74126375  0.52455661  0.58692111     0.06800
H588        H  0.71797001  0.40569580  0.65148232     0.06650
O589        O  0.40859815  0.97114508  0.61193677    -0.87790
C590        C  0.41666360  0.00642678  0.48524723     0.88240
Mg591      Mg  0.46465587  0.95240656  0.64386369     1.58150
O592        O  0.36835138  0.90727723  0.50377538    -0.87520
O593        O  0.34570115  0.94707502  0.59210434    -0.74850
C594        C  0.56210855  0.81595138  0.51072831     0.93290
O595        O  0.48470842  0.02119263  0.56341023    -0.74660
O596        O  0.57288428  0.83815385  0.54384348    -0.82170
Mg597      Mg  0.41307287  0.03110658  0.57900230     1.57960
C598        C  0.39978358  0.80166080  0.44533300     0.93210
O599        O  0.34005066  0.03885560  0.59898656    -0.80430
H600        H  0.32590296  0.87081938  0.53515283    -0.05780
C601        C  0.49390217  0.90969276  0.47026525     0.88150
O602        O  0.44685684  0.88116780  0.63352818    -0.74940
O603        O  0.39908075  0.99593078  0.51954809    -0.87710
O604        O  0.37817045  0.83571448  0.43843916    -0.80520
C605        C  0.32478426  0.96781420  0.41269878     0.93330
C606        C  0.30709415  0.03333642  0.57509064     0.93180
Mg607      Mg  0.45613160  0.83356988  0.51379924     1.57950
O608        O  0.52397378  0.81575183  0.49674357    -0.80440
O609        O  0.38508151  0.84461752  0.53115630    -0.74680
O610        O  0.32628355  0.98484415  0.44990145    -0.80520
O611        O  0.43591059  0.06967408  0.63945452    -0.82230
O612        O  0.53948391  0.87363739  0.64257200    -0.80550
C613        C  0.35822558  0.87428915  0.52356482     0.87620
O614        O  0.47411510  0.86377958  0.57096623    -0.87690
O615        O  0.45962106  0.89267461  0.48087251    -0.87800
O616        O  0.52449076  0.91522029  0.49716758    -0.74850
Mg617      Mg  0.33915604  0.96543920  0.51970292     1.57970
O618        O  0.34341989  0.93227304  0.40479560    -0.82230
H619        H  0.36935277  0.94136944  0.65312630    -0.05950
O620        O  0.49835628  0.95527671  0.58498935    -0.87500
H621        H  0.54321942  0.99336931  0.55941223    -0.05780
H622        H  0.44325370  0.82124209  0.60791338    -0.05950
C623        C  0.51028968  0.98984107  0.56909502     0.87590
C624        C  0.37454969  0.95293464  0.62063728     0.88180
C625        C  0.45465526  0.85381197  0.60416807     0.88230
H626        H  0.49777111  0.92067317  0.43738071    -0.05930
O627        O  0.42120511  0.97996311  0.45403710    -0.74960
Mg628      Mg  0.53357842  0.89684951  0.56921806     1.58000
H629        H  0.42854326  0.03884757  0.48170837    -0.05950
C630        C  0.46787565  0.05850508  0.66262995     0.93210
O631        O  0.52559053  0.93526316  0.67376055    -0.82190
C632        C  0.53174164  0.89554711  0.67658313     0.93270
O633        O  0.31137115  0.02769725  0.53520681    -0.82170
Mg634      Mg  0.40181858  0.90834009  0.44467490     1.58180
O635        O  0.48173352  0.02031735  0.66244248    -0.80510
O636        O  0.43921260  0.80404637  0.45232439    -0.82200
C637        C  0.35617474  0.69566722  0.41161626     0.03690
C638        C  0.37011484  0.66934422  0.44577570    -0.12460
C639        C  0.38912814  0.68764573  0.48268771     0.01190
C640        C  0.39381749  0.73251926  0.48435978    -0.10990
C641        C  0.38038473  0.75884665  0.44974978     0.03680
C642        C  0.35955691  0.74042382  0.41469252    -0.10410
H643        H  0.37051790  0.63481714  0.44148537     0.09270
H644        H  0.41280346  0.74650585  0.51020942     0.06800
H645        H  0.35126959  0.76026600  0.38711026     0.06650
C646        C  0.20402674  0.05446274  0.63323552     0.03690
C647        C  0.17681709  0.02328028  0.61451245    -0.12460
C648        C  0.19331469  0.99330603  0.58489476     0.01190
C649        C  0.23680215  0.99593677  0.57414219    -0.10990
C650        C  0.26392531  0.02710423  0.59282524     0.03680
C651        C  0.24770680  0.05496873  0.62353671    -0.10410
H652        H  0.14274626  0.02479512  0.62005918     0.09270
H653        H  0.24910578  0.97496344  0.54919134     0.06800
H654        H  0.26805979  0.08015170  0.63649134     0.06650
C655        C  0.54901156  0.83277288  0.77921905     0.03690
C656        C  0.51865515  0.85193557  0.80674631    -0.12460
C657        C  0.48990111  0.88254630  0.79016398     0.01190
C658        C  0.49297015  0.89394520  0.74637905    -0.10990
C659        C  0.52400162  0.87577533  0.71917559     0.03680
C660        C  0.55046705  0.84387367  0.73527983    -0.10410
H661        H  0.52000100  0.84589591  0.84119187     0.09270
H662        H  0.47308170  0.91976296  0.73424026     0.06800
H663        H  0.57544560  0.83105961  0.71489517     0.06650
C664        C  0.26078898  0.27726832  0.70230601     0.03690
C665        C  0.24461371  0.29369918  0.74131705    -0.12460
C666        C  0.20965853  0.27439159  0.76163948     0.01190
C667        C  0.19124037  0.23751991  0.74335701    -0.10990
C668        C  0.20752770  0.21991560  0.70527019     0.03680
C669        C  0.24114165  0.24093979  0.68394567    -0.10410
H670        H  0.25991730  0.32103052  0.75659500     0.09270
H671        H  0.16536541  0.22133994  0.75989249     0.06800
H672        H  0.25325630  0.22768112  0.65411103     0.06650
C673        C  0.19357310  0.17657917  0.69040142    -0.04780
C674        C  0.20034882  0.14029411  0.71717170    -0.01900
C675        C  0.19707214  0.09863535  0.69972739     0.03090
C676        C  0.18766781  0.09302310  0.65554910    -0.04780
C677        C  0.17590070  0.12885222  0.63020880    -0.01890
C678        C  0.17871326  0.17056613  0.64766708     0.03090
C679        C  0.21460329  0.14552853  0.76156404     0.37740
C680        C  0.16525435  0.12309262  0.58487441     0.37730
C681        C  0.16860218  0.20745490  0.62095476     0.36150
C682        C  0.20723593  0.06164516  0.72626201     0.36150
N683        N  0.16072874  0.23693897  0.59965188    -0.38670
N684        N  0.21554288  0.03246731  0.74780487    -0.38670
N685        N  0.15700981  0.11842103  0.54868146    -0.38110
N686        N  0.22591975  0.14957938  0.79699032    -0.38120
C687        C  0.38214813  0.33486869  0.67784018    -0.04780
C688        C  0.34530704  0.36079605  0.67898298    -0.01900
C689        C  0.30459710  0.34164444  0.68088428     0.03090
C690        C  0.30071167  0.29644283  0.68393126    -0.04780
C691        C  0.33733820  0.27078714  0.67610462    -0.01890
C692        C  0.37784649  0.29033810  0.67211221     0.03090
C693        C  0.34966411  0.40702725  0.68314429     0.37740
C694        C  0.33462602  0.22432797  0.67589250     0.37730
C695        C  0.41573640  0.26453302  0.66568946     0.36150
C696        C  0.26691166  0.36858209  0.68263381     0.36150
N697        N  0.44601674  0.24411811  0.66016476    -0.38670
N698        N  0.23686842  0.39002329  0.68436874    -0.38670
N699        N  0.33273861  0.18722158  0.67537748    -0.38110
N700        N  0.35323317  0.44381884  0.68697516    -0.38120
C701        C  0.19374216  0.29022240  0.80398255    -0.04780
C702        C  0.22048148  0.28989262  0.84101187    -0.01900
C703        C  0.20260935  0.29491815  0.88243748     0.03090
C704        C  0.15809521  0.29849861  0.88703745    -0.04780
C705        C  0.13234372  0.30469824  0.84997055    -0.01890
C706        C  0.15018198  0.30080428  0.80851132     0.03090
C707        C  0.26563421  0.28058884  0.83710919     0.37740
C708        C  0.08662458  0.31045274  0.85458243     0.37730
C709        C  0.12315971  0.30500606  0.77052773     0.36150
C710        C  0.22973862  0.29424827  0.92045085     0.36150
N711        N  0.10164236  0.30810637  0.74019089    -0.38670
N712        N  0.25217107  0.29452321  0.95025100    -0.38670
N713        N  0.05016120  0.31477459  0.85836278    -0.38110
N714        N  0.30166874  0.27316661  0.83411178    -0.38120
C715        C  0.20149903  0.69267627  0.66160624    -0.04780
C716        C  0.16391240  0.66854669  0.65504248    -0.01900
C717        C  0.14533916  0.66627279  0.61351383     0.03090
C718        C  0.16432584  0.68848647  0.57870295    -0.04780
C719        C  0.20542758  0.70646332  0.58409355    -0.01890
C720        C  0.22379354  0.70915551  0.62566329     0.03090
C721        C  0.14293939  0.64866364  0.69162056     0.37740
C722        C  0.22654267  0.72622674  0.54750204     0.37730
C723        C  0.26341205  0.73262685  0.63198405     0.36150
C724        C  0.10436437  0.64522620  0.60767976     0.36150
N725        N  0.29491036  0.75148985  0.63712300    -0.38670
N726        N  0.07166459  0.62844323  0.60299046    -0.38670
N727        N  0.24336061  0.74201887  0.51831515    -0.38110
N728        N  0.12632832  0.63286110  0.72091718    -0.38120
C729        C  0.18653609  0.79901407  0.78089455    -0.04780
C730        C  0.17800804  0.80293141  0.82555101    -0.01900
C731        C  0.17562976  0.84389894  0.84457456     0.03090
C732        C  0.18011837  0.88094408  0.81874107    -0.04780
C733        C  0.18063964  0.87700883  0.77352131    -0.01890
C734        C  0.18483304  0.83617517  0.75443838     0.03090
C735        C  0.17484833  0.76486311  0.85238637     0.37740
C736        C  0.17997095  0.91524882  0.74687927     0.37730
C737        C  0.19170649  0.83332603  0.70820919     0.36150
C738        C  0.17294525  0.84804003  0.89119606     0.36150
N739        N  0.19713826  0.83123047  0.67130962    -0.38670
N740        N  0.17110617  0.85142629  0.92837645    -0.38670
N741        N  0.17887463  0.94548504  0.72522149    -0.38110
N742        N  0.17259691  0.73448576  0.87378056    -0.38120
C743        C  0.30631273  0.69408279  0.78372758    -0.04780
C744        C  0.34161247  0.72238485  0.78739814    -0.01900
C745        C  0.38267786  0.70577379  0.79533241     0.03090
C746        C  0.38856117  0.66114515  0.79809187    -0.04780
C747        C  0.35269686  0.63374588  0.80103589    -0.01890
C748        C  0.31154578  0.65023287  0.79386939     0.03090
C749        C  0.33663216  0.76793678  0.77919328     0.37740
C750        C  0.35866924  0.58783484  0.80631779     0.37730
C751        C  0.27489311  0.62163199  0.79412019     0.36150
C752        C  0.41930791  0.73419687  0.79774289     0.36150
N753        N  0.24562858  0.59887852  0.79406869    -0.38670
N754        N  0.44816088  0.75733930  0.80027183    -0.38670
N755        N  0.36354391  0.55123238  0.81025915    -0.38110
N756        N  0.33277930  0.80431078  0.77273355    -0.38120
C757        C  0.58871772  0.15928575  0.68627978    -0.04780
C758        C  0.60158714  0.19783524  0.70645998    -0.01900
C759        C  0.64516023  0.20834281  0.70909342     0.03090
C760        C  0.67576677  0.18134573  0.68961787    -0.04780
C761        C  0.66229048  0.14667816  0.66373154    -0.01890
C762        C  0.61873597  0.13539406  0.66221241     0.03090
C763        C  0.57012619  0.22450943  0.72777783     0.37740
C764        C  0.69355724  0.12103206  0.64105601     0.37730
C765        C  0.60561179  0.09701689  0.63911076     0.36150
C766        C  0.65858015  0.24607044  0.73321631     0.36150
N767        N  0.59517553  0.06643674  0.62058348    -0.38670
N768        N  0.66930291  0.27601200  0.75261880    -0.38670
N769        N  0.71862897  0.10074454  0.62293073    -0.38110
N770        N  0.54499238  0.24564176  0.74483078    -0.38120
C771        C  0.79947510  0.20156552  0.79082441    -0.04780
C772        C  0.82061721  0.23748147  0.80906309    -0.01900
C773        C  0.84498432  0.23255444  0.84657126     0.03090
C774        C  0.83719974  0.19738812  0.87444904    -0.04780
C775        C  0.81461032  0.16169409  0.85796252    -0.01890
C776        C  0.79872290  0.16260126  0.81496379     0.03090
C777        C  0.81416775  0.28069756  0.79264154     0.37740
C778        C  0.80715991  0.12451620  0.88502505     0.37730
C779        C  0.78185928  0.12346532  0.79606855     0.36150
C780        C  0.87774399  0.26427796  0.85640876     0.36150
N781        N  0.76850463  0.09212937  0.78105815    -0.38670
N782        N  0.90404327  0.28951624  0.86348109    -0.38670
N783        N  0.80119609  0.09479256  0.90661221    -0.38110
N784        N  0.80884967  0.31523438  0.77996469    -0.38120
C785        C  0.78559062  0.27908206  0.64967168    -0.04780
C786        C  0.75071463  0.29998077  0.62834324    -0.01900
C787        C  0.75639761  0.34079379  0.61060915     0.03090
C788        C  0.78930988  0.36729102  0.62665449    -0.04780
C789        C  0.82514681  0.34746525  0.64559492    -0.01890
C790        C  0.82481272  0.30245586  0.65246155     0.03090
C791        C  0.70693941  0.28456486  0.62927720     0.37740
C792        C  0.86156169  0.37298073  0.65906646     0.37730
C793        C  0.86478659  0.28094999  0.66149244     0.36150
C794        C  0.72622595  0.35665418  0.57849569     0.36150
N795        N  0.89688726  0.26401075  0.66860219    -0.38670
N796        N  0.70217949  0.36877391  0.55278104    -0.38670
N797        N  0.89063132  0.39339021  0.66989102    -0.38110
N798        N  0.67159233  0.27364782  0.62974273    -0.38120
C799        C  0.68067950  0.18921406  0.18182551    -0.04780
C800        C  0.70600030  0.20978255  0.15018267    -0.01900
C801        C  0.69605003  0.20493397  0.10621915     0.03090
C802        C  0.65818524  0.18355241  0.09390860    -0.04780
C803        C  0.63530924  0.15953733  0.12506537    -0.01890
C804        C  0.64713747  0.16188653  0.16906884     0.03090
C805        C  0.74080936  0.23813230  0.16285478     0.37740
C806        C  0.59753938  0.13548662  0.11256921     0.37730
C807        C  0.62337254  0.13843339  0.20146826     0.36150
C808        C  0.72212678  0.22580927  0.07366115     0.36150
N809        N  0.60455303  0.11966592  0.22744013    -0.38670
N810        N  0.74282545  0.24249350  0.04770766    -0.38670
N811        N  0.56741522  0.11623242  0.10259623    -0.38110
N812        N  0.76847316  0.26081420  0.17284927    -0.38120
C813        C  0.79757356  0.17669813  0.27853038    -0.04780
C814        C  0.81556277  0.15207634  0.24449581    -0.01900
C815        C  0.85314510  0.12928040  0.25141853     0.03090
C816        C  0.88146316  0.14227956  0.28446328    -0.04780
C817        C  0.86530145  0.16731635  0.31856803    -0.01890
C818        C  0.82222336  0.18156969  0.31714878     0.03090
C819        C  0.79952890  0.15308741  0.20038117     0.37740
C820        C  0.89265050  0.17829187  0.35478760     0.37730
C821        C  0.80389319  0.20054539  0.35547598     0.36150
C822        C  0.86350959  0.09381446  0.22277694     0.36150
N823        N  0.78959290  0.21547955  0.38640044    -0.38670
N824        N  0.87089104  0.06545038  0.19988874    -0.38670
N825        N  0.91449410  0.18689052  0.38380528    -0.38110
N826        N  0.78836045  0.15279434  0.16468462    -0.38120
C827        C  0.69251047  0.29966939  0.29427291    -0.04780
C828        C  0.68802848  0.30437409  0.33940796    -0.01900
C829        C  0.68385938  0.34553752  0.35761076     0.03090
C830        C  0.68380288  0.38221012  0.33077130    -0.04780
C831        C  0.68207727  0.37709735  0.28564572    -0.01890
C832        C  0.68700113  0.33598206  0.26722875     0.03090
C833        C  0.68888050  0.26692356  0.36726644     0.37740
C834        C  0.67712262  0.41440564  0.25817369     0.37730
C835        C  0.68894799  0.33187235  0.22061129     0.36150
C836        C  0.68354563  0.35060960  0.40424571     0.36150
N837        N  0.69006981  0.32908353  0.18335010    -0.38670
N838        N  0.68354508  0.35477690  0.44140088    -0.38670
N839        N  0.67246027  0.44368148  0.23567779    -0.38110
N840        N  0.68944845  0.23704055  0.38946024    -0.38120
C841        C  0.27472992  0.28136938  0.17113612    -0.04780
C842        C  0.24881106  0.27262415  0.13475844    -0.01900
C843        C  0.26619833  0.27529519  0.09291873     0.03090
C844        C  0.30915434  0.28794506  0.08730696    -0.04780
C845        C  0.33353941  0.30107656  0.12357018    -0.01890
C846        C  0.31652883  0.29723871  0.16540192     0.03090
C847        C  0.20516397  0.25812645  0.14040109     0.37740
C848        C  0.37770931  0.31422006  0.11822745     0.37730
C849        C  0.34276921  0.30760451  0.20278513     0.36150
C850        C  0.24098897  0.26128602  0.05609069     0.36150
N851        N  0.36368188  0.31559885  0.23266510    -0.38670
N852        N  0.22030174  0.24947474  0.02736100    -0.38670
N853        N  0.41295985  0.32449498  0.11391789    -0.38110
N854        N  0.17024642  0.24672128  0.14455632    -0.38120
C855        C  0.27563057  0.18766952  0.30458203    -0.04780
C856        C  0.24645090  0.16894777  0.33442283    -0.01900
C857        C  0.25699389  0.13081141  0.35551623     0.03090
C858        C  0.28755601  0.10340869  0.33708140    -0.04780
C859        C  0.31780344  0.12108145  0.30871982    -0.01890
C860        C  0.31390284  0.16455491  0.29565508     0.03090
C861        C  0.20302173  0.18404333  0.34005519     0.37740
C862        C  0.35207483  0.09460988  0.29248270     0.37730
C863        C  0.34925735  0.18481771  0.27351794     0.36150
C864        C  0.23332644  0.11771520  0.39367535     0.36150
N865        N  0.37767234  0.20084972  0.25597083    -0.38670
N866        N  0.21452007  0.10763807  0.42413423    -0.38670
N867        N  0.37945014  0.07338407  0.27958945    -0.38110
N868        N  0.16815255  0.19499065  0.34525234    -0.38120
C869        C  0.17120688  0.29980127  0.28938190    -0.04780
C870        C  0.16251938  0.33774726  0.31220302    -0.01900
C871        C  0.12004902  0.35218478  0.31553396     0.03090
C872        C  0.08660529  0.32852320  0.29579868    -0.04780
C873        C  0.09484721  0.28721363  0.27939453    -0.01890
C874        C  0.13720230  0.27320705  0.27523119     0.03090
C875        C  0.19745357  0.36323010  0.32937378     0.37740
C876        C  0.05994411  0.26140098  0.26239069     0.37730
C877        C  0.14589583  0.23293299  0.25337645     0.36150
C878        C  0.11130749  0.39350748  0.33506870     0.36150
N879        N  0.15281984  0.20083165  0.23598102    -0.38670
N880        N  0.10425518  0.42647670  0.35066239    -0.38670
N881        N  0.03213225  0.24084240  0.24878287    -0.38110
N882        N  0.22547643  0.38343227  0.34305022    -0.38120
C883        C  0.69578931  0.67275118  0.20103106    -0.04780
C884        C  0.69871133  0.63656195  0.22847721    -0.01900
C885        C  0.69298877  0.59503859  0.21134264     0.03090
C886        C  0.68413179  0.58965301  0.16699020    -0.04780
C887        C  0.67505692  0.62598626  0.14120422    -0.01890
C888        C  0.68122674  0.66752659  0.15814378     0.03090
C889        C  0.71179102  0.64157281  0.27326018     0.37740
C890        C  0.66450805  0.62055758  0.09579971     0.37730
C891        C  0.67555550  0.70481879  0.13065523     0.36150
C892        C  0.70076016  0.55782763  0.23832570     0.36150
N893        N  0.67127887  0.73461599  0.10875283    -0.38670
N894        N  0.70735129  0.52864614  0.26045163    -0.38670
N895        N  0.65634305  0.61614595  0.05955582    -0.38110
N896        N  0.72214121  0.64556727  0.30898865    -0.38120
C897        C  0.81652103  0.77703237  0.19522476    -0.04780
C898        C  0.82120169  0.81638264  0.17328117    -0.01900
C899        C  0.86213279  0.83443056  0.16798110     0.03090
C900        C  0.89822922  0.81338308  0.18538754    -0.04780
C901        C  0.89401357  0.77104564  0.20099267    -0.01890
C902        C  0.85309153  0.75293109  0.20631007     0.03090
C903        C  0.78363329  0.83964263  0.15907816     0.37740
C904        C  0.93157970  0.74821730  0.21588059     0.37730
C905        C  0.84851019  0.71139554  0.22698048     0.36150
C906        C  0.86656402  0.87696457  0.14943493     0.36150
N907        N  0.84480128  0.67830535  0.24355026    -0.38670
N908        N  0.87015604  0.91092756  0.13473135    -0.38670
N909        N  0.96160188  0.73008763  0.22776942    -0.38110
N910        N  0.75356438  0.85812466  0.14788253    -0.38120
C911        C  0.70790425  0.78727064  0.31176327    -0.04780
C912        C  0.73165752  0.77505403  0.34867105    -0.01900
C913        C  0.71317415  0.77793939  0.38996726     0.03090
C914        C  0.67099842  0.79306836  0.39443411    -0.04780
C915        C  0.64977119  0.81085777  0.35822368    -0.01890
C916        C  0.66812618  0.80764809  0.31685782     0.03090
C917        C  0.77325594  0.75528606  0.34383706     0.37740
C918        C  0.60692543  0.82779095  0.36271716     0.37730
C919        C  0.64476397  0.82230706  0.27908808     0.36150
C920        C  0.73575784  0.76091579  0.42720725     0.36150
N921        N  0.62613361  0.83382738  0.24888254    -0.38670
N922        N  0.75414418  0.74688531  0.45646295    -0.38670
N923        N  0.57270177  0.84114770  0.36633625    -0.38110
N924        N  0.80637783  0.73944831  0.33994205    -0.38120
C925        C  0.29486455  0.88988670  0.16097325    -0.04780
C926        C  0.30407251  0.85484922  0.13363057    -0.01900
C927        C  0.30213132  0.81279302  0.14984545     0.03090
C928        C  0.29155577  0.80569760  0.19350799    -0.04780
C929        C  0.28786518  0.84089203  0.22203030    -0.01890
C930        C  0.28948147  0.88311928  0.20562764     0.03090
C931        C  0.31077308  0.86182727  0.08775617     0.37740
C932        C  0.27909353  0.83370276  0.26739600     0.37730
C933        C  0.28262738  0.91955193  0.23389523     0.36150
C934        C  0.30796236  0.77660488  0.12092183     0.36150
N935        N  0.27732554  0.94871610  0.25638445    -0.38670
N936        N  0.31226375  0.74766123  0.09793236    -0.38670
N937        N  0.27217268  0.82800879  0.30363907    -0.38110
N938        N  0.31583618  0.86746551  0.05117923    -0.38120
C939        C  0.18427585  0.68812940  0.19752542    -0.04780
C940        C  0.16421300  0.67385252  0.23529282    -0.01900
C941        C  0.12677716  0.65028689  0.23226022     0.03090
C942        C  0.09986632  0.65549998  0.19567691    -0.04780
C943        C  0.11742668  0.67475188  0.15816090    -0.01890
C944        C  0.16085985  0.68809845  0.15829077     0.03090
C945        C  0.17822029  0.68880336  0.27749002     0.37740
C946        C  0.09131087  0.68155774  0.12007547     0.37730
C947        C  0.18075166  0.70285121  0.11885569     0.36150
C948        C  0.11754996  0.61982376  0.26651799     0.36150
N949        N  0.19670490  0.71463457  0.08735974    -0.38670
N950        N  0.11117174  0.59534457  0.29386971    -0.38670
N951        N  0.07051033  0.68705214  0.08957646    -0.38110
N952        N  0.18834030  0.70200039  0.31098530    -0.38120
C953        C  0.31553156  0.67331994  0.28334703    -0.04780
C954        C  0.29169681  0.65444229  0.31755387    -0.01900
C955        C  0.30612339  0.65882649  0.36051309     0.03090
C956        C  0.34605914  0.67763564  0.36864834    -0.04780
C957        C  0.37426702  0.68511654  0.33400985    -0.01890
C958        C  0.35908073  0.68244737  0.29124796     0.03090
C959        C  0.25404026  0.62863017  0.30958238     0.37740
C960        C  0.41786370  0.69860179  0.34258700     0.37730
C961        C  0.38749787  0.69121739  0.25546224     0.36150
C962        C  0.27891818  0.64661854  0.39630254     0.36150
N963        N  0.41008598  0.69839027  0.22688267    -0.38670
N964        N  0.25724605  0.63703791  0.42491135    -0.38670
N965        N  0.45256065  0.70946449  0.34963652    -0.38110
N966        N  0.22461445  0.60663414  0.30436151    -0.38120
C967        C  0.77905048  0.78596400  0.67734841    -0.04780
C968        C  0.82233955  0.79760685  0.67248419    -0.01900
C969        C  0.83905112  0.80415147  0.63091640     0.03090
C970        C  0.81239085  0.79930348  0.59429884    -0.04780
C971        C  0.76807859  0.79489568  0.59961838    -0.01890
C972        C  0.75130169  0.78742110  0.64106722     0.03090
C973        C  0.85026909  0.79986275  0.70997355     0.37740
C974        C  0.74026803  0.79498062  0.56204851     0.37730
C975        C  0.70633840  0.77711757  0.64543558     0.36150
C976        C  0.88457609  0.81090959  0.62540526     0.36150
N977        N  0.67045880  0.76891882  0.64882399    -0.38670
N978        N  0.92087738  0.81602925  0.62085920    -0.38670
N979        N  0.71762402  0.79560006  0.53240984    -0.38110
N980        N  0.87254835  0.80141556  0.73987768    -0.38120
C981        C  0.78374435  0.66367915  0.78136930    -0.04780
C982        C  0.77586664  0.62744074  0.75496549    -0.01900
C983        C  0.78055738  0.58586886  0.77226468     0.03090
C984        C  0.79238207  0.58064764  0.81594121    -0.04780
C985        C  0.80647312  0.61658541  0.84000492    -0.01890
C986        C  0.80194714  0.65814572  0.82274488     0.03090
C987        C  0.75901621  0.63279595  0.71156450     0.37740
C988        C  0.82081477  0.61115311  0.88432075     0.37730
C989        C  0.81311243  0.69540241  0.84861184     0.36150
C990        C  0.76922413  0.54848504  0.74666813     0.36150
N991        N  0.82184919  0.72522397  0.86916282    -0.38670
N992        N  0.76025433  0.51861852  0.72627827    -0.38670
N993        N  0.83211939  0.60678165  0.91970113    -0.38110
N994        N  0.74553839  0.63705373  0.67694965    -0.38120
C995        C  0.66894645  0.77356428  0.79139914    -0.04780
C996        C  0.66325034  0.81512703  0.80849982    -0.01900
C997        C  0.62199350  0.83280067  0.81092218     0.03090
C998        C  0.58639875  0.80895429  0.79599565    -0.04780
C999        C  0.59161681  0.76558637  0.78414440    -0.01890
C1000       C  0.63283463  0.74781557  0.78189449     0.03090
C1001       C  0.70018081  0.84082061  0.82042462     0.37740
C1002       C  0.55503037  0.74058770  0.76989897     0.37730
C1003       C  0.63812882  0.70454226  0.76540809     0.36150
C1004       C  0.61675039  0.87724170  0.82389649     0.36150
N1005       N  0.64234093  0.67004925  0.75224639    -0.38670
N1006       N  0.61253650  0.91274211  0.83398741    -0.38670
N1007       N  0.52631642  0.72019523  0.75812495    -0.38110
N1008       N  0.72971578  0.86131732  0.82965333    -0.38120
loop_ 
_geom_bond_atom_site_label_1 
_geom_bond_atom_site_label_2 
_geom_bond_distance 
_geom_bond_site_symmetry_2 
_ccdc_geom_bond_type 
C1            C2   1.401       .  A
C1            C6   1.402       .  A
C1          C995   1.485       .  S
C2            C3   1.404       .  A
C2            H7   1.084       .  S
C3            C4   1.399       .  A
C3          C981   1.483       .  S
C4            C5   1.405       .  A
C4            H8   1.084       .  S
C5            C6   1.399       .  A
C5          C967   1.485       .  S
C6            H9   1.084       .  S
C10          C11   1.399       .  A
C10          C15   1.399       .  A
C10         C928   1.481       .  S
C11          C12   1.414       .  A
C11          H16   1.082       .  S
C12          C13   1.403       .  A
C12         C953   1.507       .  S
C13          C14   1.408       .  A
C13          H17   1.079       .  S
C14          C15   1.395       .  A
C14         C939   1.485       .  S
C15          H18   1.084       .  S
C19          C20   1.400       .  A
C19          C24   1.404       .  A
C19         C883   1.485       .  S
C20          C21   1.402       .  A
C20          H25   1.084       .  S
C21          C22   1.401       .  A
C21         C911   1.484       .  S
C22          C23   1.404       .  A
C22          H26   1.084       .  S
C23          C24   1.399       .  A
C23         C897   1.483       .  S
C24          H27   1.084       .  S
C28          C29   1.395       .  A
C28          C33   1.396       .  A
C28         C869   1.478       .  S
C29          C30   1.409       .  A
C29          H34   1.081       .  S
C30          C31   1.414       .  A
C30         C855   1.512       .  S
C31          C32   1.406       .  A
C31          H35   1.080       .  S
C32          C33   1.395       .  A
C32         C841   1.482       .  S
C33          H36   1.084       .  S
C37          C38   1.395       .  A
C37          C42   1.392       .  A
C37         C799   1.478       .  S
C38          C39   1.399       .  A
C38          H43   1.083       .  S
C39          C40   1.413       .  A
C39         C827   1.490       .  S
C40          C41   1.414       .  A
C40          H44   1.081       .  S
C41          C42   1.407       .  A
C41         C813   1.511       .  S
C42          H45   1.082       .  S
C46          C47   1.410       .  A
C46          C51   1.402       .  A
C46         C785   1.519       .  S
C47          C48   1.412       .  A
C47          H52   1.072       .  S
C48          C49   1.401       .  A
C48         C771   1.503       .  S
C49          C50   1.400       .  A
C49          H53   1.083       .  S
C50          C51   1.396       .  A
C50         C760   1.479       .  S
C51          H54   1.081       .  S
C55          C56   1.398       .  A
C55          C60   1.403       .  A
C55         C715   1.483       .  S
C56          C57   1.404       .  A
C56          H61   1.084       .  S
C57          C58   1.398       .  A
C57         C743   1.485       .  S
C58          C59   1.405       .  A
C58          H62   1.084       .  S
C59          C60   1.403       .  A
C59         C729   1.492       .  S
C60          H63   1.084       .  S
O64         Mg66   2.107       .  S
O64         Mg72   2.125   1_554  S
O64          C99   1.239       .  S
C65         H104   1.081       .  S
C65          O78   1.243   1_655  S
C65         O102   1.280       .  A
Mg66         O95   2.114   1_545  S
Mg66        O110   2.266   1_544  S
Mg66        O106   2.189   1_545  S
Mg66         O77   2.303       .  S
O67        Mg109   2.100   1_455  S
O67         Mg92   2.082       .  S
O67          C88   1.240       .  S
O68          C99   1.275       .  A
O68         Mg92   2.336       .  S
C69         C282   1.493   1_455  S
C69          O71   1.282       .  A
C69          O83   1.271       .  A
O70          C98   1.278       .  A
O70         Mg72   2.327   1_565  S
O71        Mg103   2.352       .  S
Mg72         O78   2.186       .  S
Mg72         O86   2.341       .  S
Mg72         O74   2.420       .  S
C73         C123   1.474       .  S
C73         O111   1.257       .  A
C73          O79   1.276       .  A
O74          C81   1.281       .  A
H75          C88   1.081       .  S
C76         H101   1.081       .  S
C76          O90   1.242   1_565  S
C76          O91   1.276       .  A
O77         C100   1.270       .  A
O78         Mg92   2.089   1_556  S
O79        Mg109   2.381       .  S
C80         C432   1.479   1_554  S
C80          O93   1.276       .  A
C80          O85   1.268   1_554  A
C81         C114   1.486       .  S
C81         O108   1.252       .  A
Mg82         O89   2.063       .  S
Mg82         O90   2.106   1_455  S
Mg82         O83   2.280   1_545  S
Mg82         O84   2.321       .  S
Mg82        O111   2.157   1_455  S
O84          C88   1.274       .  A
O85         Mg92   2.291   1_656  S
O86         C105   1.281       .  A
O87         C107   1.278       .  A
O87        Mg103   2.378       .  S
O89        Mg103   2.125   1_545  S
O89         C100   1.237       .  S
O90        Mg109   2.170       .  S
O91        Mg103   2.308   1_655  S
Mg92        O108   2.174   1_554  S
O93        Mg109   2.315       .  S
H94          C99   1.081       .  S
O95        Mg103   2.199       .  S
O95          C98   1.242   1_554  S
H96          C98   1.081       .  S
H97         C100   1.081       .  S
O102       Mg109   2.335   1_556  S
C105        C507   1.483   1_545  S
C105        O110   1.269   1_545  A
O106        C107   1.257       .  A
C107        C132   1.475       .  S
C112        C113   1.404       .  A
C112        C117   1.413       .  A
C112        C704   1.481       .  S
C113        C114   1.387       .  A
C113        H118   1.085       .  S
C114        C115   1.418       .  A
C115        C116   1.413       .  A
C115        H119   1.084       .  S
C116        C117   1.410       .  A
C116        C369   1.497   1_556  S
C117        H120   1.083       .  S
C121        C122   1.406       .  A
C121        C126   1.415       .  A
C121        C816   1.496       .  S
C122        C123   1.383       .  A
C122        H127   1.085       .  S
C123        C124   1.408   1_655  A
C124        C125   1.401   1_455  A
C124        H128   1.085       .  S
C125        C126   1.417       .  A
C125        C230   1.480   1_655  S
C126        H129   1.083       .  S
C130        C131   1.404       .  A
C130        C135   1.411       .  A
C130        C925   1.476       .  S
C131        C132   1.388       .  A
C131        H136   1.085       .  S
C132        C133   1.409       .  A
C133        C134   1.404       .  A
C133        H137   1.085   1_565  S
C134        C135   1.406       .  A
C134        C444   1.479   1_565  S
C135        H138   1.084       .  S
O139       Mg141   2.099       .  S
O139       Mg147   2.112       .  S
O139        C174   1.238       .  S
C140        H179   1.081       .  S
C140        O153   1.243       .  S
C140        O177   1.279   1_655  A
Mg141       O170   2.105       .  S
Mg141       O185   2.269       .  S
Mg141       O181   2.179       .  S
Mg141       O152   2.309       .  S
O142       Mg184   2.120   1_655  S
O142       Mg167   2.075       .  S
O142        C163   1.239       .  S
O143        C174   1.274       .  A
O143       Mg167   2.330       .  S
C144        C425   1.487       .  S
C144        O146   1.281       .  A
C144        O158   1.270       .  A
O145        C173   1.279       .  A
O145       Mg147   2.332       .  S
O146       Mg178   2.342       .  S
Mg147       O153   2.188       .  S
Mg147       O161   2.333       .  S
Mg147       O149   2.403       .  S
C148        C200   1.475       .  S
C148        O186   1.258       .  A
C148        O154   1.279       .  A
O149        C156   1.278       .  A
H150        C163   1.081       .  S
C151        H176   1.081       .  S
C151        O165   1.242   1_455  S
C151        O166   1.275   1_455  A
O152        C175   1.271       .  A
O153       Mg167   2.100       .  S
O154       Mg184   2.381       .  S
C155        C266   1.481       .  S
C155        O168   1.277       .  A
C155        O160   1.268       .  A
C156        C207   1.480       .  S
C156        O183   1.253       .  A
Mg157       O164   2.069       .  S
Mg157       O165   2.110       .  S
Mg157       O158   2.271       .  S
Mg157       O159   2.311       .  S
Mg157       O186   2.161   1_655  S
O159        C163   1.273       .  A
O160       Mg167   2.264   1_455  S
O161        C180   1.279       .  A
O162        C182   1.277       .  A
O162       Mg178   2.379       .  S
O164       Mg178   2.127       .  S
O164        C175   1.237       .  S
O165       Mg184   2.164   1_655  S
O166       Mg178   2.306       .  S
Mg167       O183   2.176       .  S
O168       Mg184   2.326       .  S
H169        C174   1.081       .  S
O170       Mg178   2.193       .  S
O170        C173   1.242       .  S
H171        C173   1.081       .  S
H172        C175   1.081       .  S
O177       Mg184   2.327       .  S
C180        C582   1.480       .  S
C180        O185   1.268       .  A
O181        C182   1.254       .  A
C182        C189   1.472       .  S
C187        C188   1.401       .  A
C187        C192   1.414       .  A
C187        C830   1.480       .  S
C188        C189   1.385       .  A
C188        H193   1.085       .  S
C189        C190   1.410       .  A
C190        C191   1.406       .  A
C190        H194   1.085       .  S
C191        C192   1.412       .  A
C191        C555   1.487       .  S
C192        H195   1.083       .  S
C196        C197   1.417       .  A
C196        C201   1.407       .  A
C196        C942   1.500       .  S
C197        C198   1.414   1_455  A
C197        H202   1.082       .  S
C198        C199   1.401       .  A
C198        C405   1.477       .  S
C199        C200   1.406   1_655  A
C199        H203   1.085       .  S
C200        C201   1.381       .  A
C201        H204   1.084       .  S
C205        C206   1.404       .  A
C205        C210   1.409       .  A
C205        C970   1.475       .  S
C206        C207   1.387       .  A
C206        H211   1.085       .  S
C207        C208   1.412       .  A
C208        C209   1.409       .  A
C208        H212   1.085       .  S
C209        C210   1.406       .  A
C209        C255   1.482       .  S
C210        H213   1.084       .  S
O214       Mg216   2.106   1_655  S
O214       Mg222   2.125       .  S
O214        C249   1.239   1_655  S
C215        H254   1.081   1_565  S
C215        O228   1.243       .  S
C215        O252   1.281   1_665  A
Mg216       O245   2.116       .  S
Mg216       O260   2.266   1_455  S
Mg216       O256   2.191       .  S
Mg216       O227   2.301       .  S
O217       Mg259   2.102   1_565  S
O217       Mg242   2.088       .  S
O217        C238   1.239       .  S
O218        C249   1.276       .  A
O218       Mg242   2.338       .  S
C219        C648   1.487       .  S
C219        O221   1.279       .  A
C219        O233   1.270       .  A
O220        C248   1.276       .  A
O220       Mg222   2.321       .  S
O221       Mg253   2.340       .  S
Mg222       O228   2.202       .  S
Mg222       O236   2.339       .  S
Mg222       O224   2.397       .  S
C223        C273   1.478       .  S
C223        O261   1.259       .  A
C223        O229   1.282       .  A
O224        C231   1.277       .  A
H225        C238   1.081       .  S
C226        H251   1.081       .  S
C226        O240   1.243   1_545  S
C226        O241   1.276   1_545  A
O227        C250   1.269       .  A
O228       Mg242   2.091   1_655  S
O229       Mg259   2.397       .  S
C230        O243   1.277       .  A
C230        O235   1.268   1_455  A
C231        C284   1.480       .  S
C231        O258   1.250       .  A
Mg232       O239   2.062       .  S
Mg232       O240   2.107       .  S
Mg232       O233   2.270       .  S
Mg232       O234   2.317       .  S
Mg232       O261   2.163   1_565  S
O234        C238   1.273       .  A
O235       Mg242   2.285   1_645  S
O236        C255   1.280       .  A
O237        C257   1.276       .  A
O237       Mg253   2.370       .  S
O239       Mg253   2.127       .  S
O239        C250   1.236       .  S
O240       Mg259   2.155   1_565  S
O241       Mg253   2.305       .  S
Mg242       O258   2.177   1_455  S
O243       Mg259   2.322       .  S
H244        C249   1.081       .  S
O245       Mg253   2.197       .  S
O245        C248   1.240   1_455  S
H246        C248   1.081       .  S
H247        C250   1.081       .  S
O252       Mg259   2.344       .  S
C255        O260   1.269       .  A
O256        C257   1.256       .  A
C257        C264   1.472       .  S
C262        C263   1.405       .  A
C262        C267   1.415       .  A
C262        C718   1.484       .  S
C263        C264   1.386       .  A
C263        H268   1.085       .  S
C264        C265   1.406       .  A
C265        C266   1.402       .  A
C265        H269   1.085       .  S
C266        C267   1.411       .  A
C267        H270   1.083       .  S
C271        C272   1.407       .  A
C271        C276   1.412       .  A
C271        C858   1.491       .  S
C272        C273   1.383       .  A
C272        H277   1.085       .  S
C273        C274   1.410   1_545  A
C274        C275   1.404       .  A
C274        H278   1.085       .  S
C275        C276   1.413   1_565  A
C275        C605   1.479       .  S
C276        H279   1.083       .  S
C280        C281   1.414       .  A
C280        C285   1.403       .  A
C280        C900   1.481       .  S
C281        C282   1.411       .  A
C281        H286   1.083       .  S
C282        C283   1.411       .  A
C283        C284   1.414       .  A
C283        H287   1.084       .  S
C284        C285   1.385       .  A
C285        H288   1.085       .  S
O289       Mg291   2.085       .  S
O289       Mg297   2.124       .  S
O289        C324   1.237       .  S
C290        H329   1.081       .  S
C290        O303   1.241       .  S
C290        O327   1.277       .  A
Mg291       O320   2.111       .  S
Mg291       O335   2.272       .  S
Mg291       O331   2.174   1_556  S
Mg291       O302   2.321       .  S
O292       Mg334   2.126       .  S
O292       Mg317   2.087       .  S
O292        C313   1.238       .  S
O293        C324   1.272       .  A
O293       Mg317   2.318       .  S
C294        C414   1.489       .  S
C294        O296   1.282       .  A
C294        O308   1.268       .  A
O295        C323   1.278   1_556  A
O295       Mg297   2.323       .  S
O296       Mg328   2.359       .  S
Mg297       O303   2.193       .  S
Mg297       O311   2.343       .  S
Mg297       O299   2.390       .  S
C298        C357   1.474       .  S
C298        O336   1.254       .  A
C298        O304   1.276       .  A
O299        C306   1.277       .  A
H300        C313   1.081       .  S
C301        H326   1.081       .  S
C301        O315   1.242       .  S
C301        O316   1.278   1_556  A
O302        C325   1.273       .  A
O303       Mg317   2.108       .  S
O304       Mg334   2.381       .  S
C305        C573   1.481       .  S
C305        O318   1.278       .  A
C305        O310   1.269       .  A
C306        C339   1.472       .  S
C306        O333   1.253       .  A
Mg307       O314   2.093       .  S
Mg307       O315   2.107       .  S
Mg307       O308   2.264   1_556  S
Mg307       O309   2.319       .  S
Mg307       O336   2.181       .  S
O309        C313   1.273       .  A
O310       Mg317   2.267       .  S
O311        C330   1.279       .  A
O312        C332   1.281       .  A
O312       Mg328   2.396       .  S
O314       Mg328   2.127   1_556  S
O314        C325   1.238       .  S
O315       Mg334   2.192       .  S
O316       Mg328   2.322       .  S
Mg317       O333   2.175       .  S
O318       Mg334   2.332       .  S
H319        C324   1.081       .  S
O320       Mg328   2.195   1_556  S
O320        C323   1.242   1_556  S
H321        C323   1.081       .  S
H322        C325   1.081       .  S
O327       Mg334   2.321       .  S
C330        C500   1.487       .  S
C330        O335   1.269       .  A
O331        C332   1.254       .  A
C332        C348   1.476       .  S
C337        C338   1.402       .  A
C337        C342   1.412       .  A
C337        C687   1.481       .  S
C338        C339   1.386       .  A
C338        H343   1.085       .  S
C339        C340   1.412       .  A
C340        C341   1.405       .  A
C340        H344   1.085       .  S
C341        C342   1.412       .  A
C341        C519   1.484       .  S
C342        H345   1.083       .  S
C346        C347   1.405       .  A
C346        C351   1.412       .  A
C346        C802   1.481       .  S
C347        C348   1.382       .  A
C347        H352   1.085       .  S
C348        C349   1.411   1_554  A
C349        C350   1.410       .  A
C349        H353   1.085       .  S
C350        C351   1.407   1_556  A
C350        C480   1.484       .  S
C351        H354   1.083       .  S
C355        C356   1.404       .  A
C355        C360   1.412       .  A
C355        C984   1.479       .  S
C356        C357   1.386       .  A
C356        H361   1.085       .  S
C357        C358   1.409       .  A
C358        C359   1.404       .  A
C358        H362   1.085       .  S
C359        C360   1.409       .  A
C359        C380   1.481       .  S
C360        H363   1.083       .  S
O364       Mg366   2.102       .  S
O364       Mg372   2.103       .  S
O364        C399   1.237       .  S
C365        H404   1.081       .  S
C365        O378   1.243   1_556  S
C365        O402   1.278       .  A
Mg366       O395   2.103       .  S
Mg366       O410   2.287       .  S
Mg366       O406   2.180   1_655  S
Mg366       O377   2.315       .  S
O367       Mg409   2.123   1_554  S
O367       Mg392   2.073       .  S
O367        C388   1.239       .  S
O368        C399   1.274       .  A
O368       Mg392   2.331       .  S
C369        O371   1.284       .  A
C369        O383   1.272       .  A
O370        C398   1.280   1_655  A
O370       Mg372   2.339       .  S
O371       Mg403   2.361       .  S
Mg372       O378   2.176       .  S
Mg372       O386   2.317       .  S
Mg372       O374   2.409       .  S
C373        C434   1.469       .  S
C373        O411   1.258       .  A
C373        O379   1.276       .  A
O374        C381   1.279       .  A
H375        C388   1.081       .  S
C376        H401   1.081       .  S
C376        O390   1.241       .  S
C376        O391   1.275   1_655  A
O377        C400   1.273       .  A
O378       Mg392   2.100       .  S
O379       Mg409   2.361       .  S
C380        O393   1.277       .  A
C380        O385   1.267       .  A
C381        C416   1.480       .  S
C381        O408   1.252       .  A
Mg382       O389   2.073       .  S
Mg382       O390   2.114   1_554  S
Mg382       O383   2.292   1_655  S
Mg382       O384   2.312       .  S
Mg382       O411   2.158   1_554  S
O384        C388   1.273       .  A
O385       Mg392   2.257   1_556  S
O386        C405   1.277       .  A
O387        C407   1.279       .  A
O387       Mg403   2.389       .  S
O389       Mg403   2.125   1_655  S
O389        C400   1.238       .  S
O390       Mg409   2.176       .  S
O391       Mg403   2.308   1_556  S
Mg392       O408   2.173       .  S
O393       Mg409   2.331       .  S
H394        C399   1.081       .  S
O395       Mg403   2.203   1_655  S
O395        C398   1.242   1_655  S
H396        C398   1.081       .  S
H397        C400   1.081       .  S
O402       Mg409   2.321       .  S
C405        O410   1.269       .  A
O406        C407   1.254       .  A
C407        C423   1.478       .  S
C412        C413   1.414       .  A
C412        C417   1.403       .  A
C412        C886   1.479       .  S
C413        C414   1.410       .  A
C413        H418   1.083       .  S
C414        C415   1.409       .  A
C415        C416   1.414       .  A
C415        H419   1.085       .  S
C416        C417   1.386       .  A
C417        H420   1.085       .  S
C421        C422   1.403       .  A
C421        C426   1.411       .  A
C421        C872   1.478       .  S
C422        C423   1.384       .  A
C422        H427   1.085       .  S
C423        C424   1.413   1_455  A
C424        C425   1.411       .  A
C424        H428   1.084       .  S
C425        C426   1.408   1_655  A
C426        H429   1.083       .  S
C430        C431   1.418       .  A
C430        C435   1.403       .  A
C430        C774   1.497       .  S
C431        C432   1.418       .  A
C431        H436   1.083       .  S
C432        C433   1.399       .  A
C433        C434   1.405       .  A
C433        H437   1.085   1_556  S
C434        C435   1.380       .  A
C435        H438   1.085       .  S
O439       Mg441   2.084       .  S
O439       Mg447   2.132       .  S
O439        C474   1.237       .  S
C440        H479   1.081       .  S
C440        O453   1.242   1_565  S
C440        O477   1.279       .  A
Mg441       O470   2.112       .  S
Mg441       O485   2.252       .  S
Mg441       O481   2.178   1_556  S
Mg441       O452   2.313       .  S
O442       Mg484   2.123   1_545  S
O442       Mg467   2.091       .  S
O442        C463   1.237       .  S
O443        C474   1.272       .  A
O443       Mg467   2.316       .  S
C444        O446   1.277       .  A
C444        O458   1.268   1_545  A
O445        C473   1.276   1_556  A
O445       Mg447   2.315       .  S
O446       Mg478   2.325       .  S
Mg447       O453   2.199       .  S
Mg447       O461   2.348       .  S
Mg447       O449   2.375       .  S
C448        C509   1.479       .  S
C448        O486   1.255       .  A
C448        O454   1.281       .  A
O449        C456   1.277       .  A
H450        C463   1.081       .  S
C451        H476   1.081       .  S
C451        O465   1.242       .  S
C451        O466   1.278   1_556  A
O452        C475   1.271       .  A
O453       Mg467   2.112       .  S
O454       Mg484   2.405       .  S
C455        C657   1.484       .  S
C455        O468   1.280       .  A
C455        O460   1.269       .  A
C456        C491   1.472       .  S
C456        O483   1.254       .  A
Mg457       O464   2.087       .  S
Mg457       O465   2.107   1_545  S
Mg457       O458   2.261   1_546  S
Mg457       O459   2.318       .  S
Mg457       O486   2.183   1_545  S
O459        C463   1.272       .  A
O460       Mg467   2.265   1_565  S
O461        C480   1.280       .  A
O462        C482   1.278       .  A
O462       Mg478   2.379       .  S
O464       Mg478   2.129   1_556  S
O464        C475   1.237       .  S
O465       Mg484   2.185       .  S
O466       Mg478   2.322   1_565  S
Mg467       O483   2.181       .  S
O468       Mg484   2.341       .  S
H469        C474   1.081       .  S
O470       Mg478   2.179   1_556  S
O470        C473   1.241   1_556  S
H471        C473   1.081       .  S
H472        C475   1.081       .  S
O477       Mg484   2.328       .  S
C480        O485   1.267       .  A
O481        C482   1.255       .  A
C482        C498   1.473       .  S
C487        C488   1.412       .  A
C487        C492   1.404       .  A
C487        C757   1.480       .  S
C488        C489   1.406       .  A
C488        H493   1.083       .  S
C489        C490   1.406       .  A
C489        C630   1.479       .  S
C490        C491   1.408       .  A
C490        H494   1.085       .  S
C491        C492   1.383       .  A
C492        H495   1.085       .  S
C496        C497   1.402       .  A
C496        C501   1.417       .  A
C496        C844   1.481       .  S
C497        C498   1.385       .  A
C497        H502   1.085       .  S
C498        C499   1.409   1_554  A
C499        C500   1.405       .  A
C499        H503   1.085       .  S
C500        C501   1.411   1_556  A
C501        H504   1.083       .  S
C505        C506   1.410       .  A
C505        C510   1.405       .  A
C505        C732   1.479       .  S
C506        C507   1.408       .  A
C506        H511   1.083       .  S
C507        C508   1.406       .  A
C508        C509   1.412       .  A
C508        H512   1.085   1_565  S
C509        C510   1.389       .  A
C510        H513   1.085       .  S
O514       Mg516   2.071       .  S
O514       Mg522   2.123       .  S
O514        C549   1.237       .  S
C515        H554   1.081       .  S
C515        O528   1.241       .  S
C515        O552   1.277       .  A
Mg516       O545   2.107       .  S
Mg516       O560   2.283       .  S
Mg516       O556   2.166       .  S
Mg516       O527   2.316       .  S
O517       Mg559   2.125       .  S
O517       Mg542   2.098       .  S
O517        C538   1.238       .  S
O518        C549   1.270       .  A
O518       Mg542   2.305       .  S
C519        O521   1.279       .  A
C519        O533   1.267       .  A
O520        C548   1.277       .  A
O520       Mg522   2.312       .  S
O521       Mg553   2.340       .  S
Mg522       O528   2.187       .  S
Mg522       O536   2.337       .  S
Mg522       O524   2.386       .  S
C523        C575   1.477       .  S
C523        O561   1.252       .  A
C523        O529   1.277       .  A
O524        C531   1.278       .  A
H525        C538   1.081       .  S
C526        H551   1.081       .  S
C526        O540   1.243       .  S
C526        O541   1.280       .  A
O527        C550   1.274       .  A
O528       Mg542   2.110       .  S
O529       Mg559   2.394       .  S
C530        C639   1.477       .  S
C530        O543   1.279       .  A
C530        O535   1.267       .  A
C531        C564   1.476       .  S
C531        O558   1.255       .  A
Mg532       O539   2.087       .  S
Mg532       O540   2.097       .  S
Mg532       O533   2.268       .  S
Mg532       O534   2.329       .  S
Mg532       O561   2.175       .  S
O534        C538   1.275       .  A
O535       Mg542   2.253       .  S
O536        C555   1.280       .  A
O537        C557   1.282       .  A
O537       Mg553   2.403       .  S
O539       Mg553   2.117       .  S
O539        C550   1.239       .  S
O540       Mg559   2.196       .  S
O541       Mg553   2.333       .  S
Mg542       O558   2.187       .  S
O543       Mg559   2.335       .  S
H544        C549   1.081       .  S
O545       Mg553   2.167       .  S
O545        C548   1.243       .  S
H546        C548   1.081       .  S
H547        C550   1.081       .  S
O552       Mg559   2.321       .  S
C555        O560   1.271       .  A
O556        C557   1.259       .  A
C557        C584   1.478       .  S
C562        C563   1.404       .  A
C562        C567   1.415       .  A
C562        C914   1.483       .  S
C563        C564   1.387       .  A
C563        H568   1.085       .  S
C564        C565   1.409       .  A
C565        C566   1.406       .  A
C565        H569   1.085       .  S
C566        C567   1.410       .  A
C566        C594   1.487       .  S
C567        H570   1.083       .  S
C571        C572   1.409       .  A
C571        C576   1.404       .  A
C571        C746   1.475       .  S
C572        C573   1.407       .  A
C572        H577   1.084       .  S
C573        C574   1.407       .  A
C574        C575   1.412       .  A
C574        H578   1.085       .  S
C575        C576   1.386       .  A
C576        H579   1.085       .  S
C580        C581   1.410       .  A
C580        C585   1.408       .  A
C580        C788   1.495       .  S
C581        C582   1.411       .  A
C581        H586   1.083       .  S
C582        C583   1.405       .  A
C583        C584   1.413       .  A
C583        H587   1.085       .  S
C584        C585   1.385       .  A
C585        H588   1.085       .  S
O589       Mg591   2.095       .  S
O589       Mg597   2.133   1_565  S
O589        C624   1.238       .  S
C590        H629   1.081       .  S
C590        O603   1.242   1_545  S
C590        O627   1.279   1_545  A
Mg591       O620   2.113       .  S
Mg591       O635   2.255   1_565  S
Mg591       O631   2.185       .  S
Mg591       O602   2.309       .  S
O592       Mg634   2.114       .  S
O592       Mg617   2.092       .  S
O592        C613   1.238       .  S
O593        C624   1.273       .  A
O593       Mg617   2.321       .  S
C594        O596   1.280       .  A
C594        O608   1.269       .  A
O595        C623   1.277   1_545  A
O595       Mg597   2.320       .  S
O596       Mg628   2.346       .  S
Mg597       O603   2.184   1_545  S
Mg597       O611   2.332       .  S
Mg597       O599   2.386       .  S
C598        C641   1.471       .  S
C598        O636   1.255       .  A
C598        O604   1.278       .  A
O599        C606   1.278       .  A
H600        C613   1.081       .  S
C601        H626   1.081       .  S
C601        O615   1.242       .  S
C601        O616   1.278       .  A
O602        C625   1.271       .  A
O603       Mg617   2.102       .  S
O604       Mg634   2.386       .  S
C605        O618   1.278       .  A
C605        O610   1.268       .  A
C606        C650   1.475       .  S
C606        O633   1.255       .  A
Mg607       O614   2.079       .  S
Mg607       O615   2.108       .  S
Mg607       O608   2.264       .  S
Mg607       O609   2.320       .  S
Mg607       O636   2.176       .  S
O609        C613   1.273       .  A
O610       Mg617   2.278       .  S
O611        C630   1.278       .  A
O612        C632   1.279       .  A
O612       Mg628   2.389       .  S
O614       Mg628   2.127       .  S
O614        C625   1.237       .  S
O615       Mg634   2.181       .  S
O616       Mg628   2.319       .  S
Mg617       O633   2.183   1_565  S
O618       Mg634   2.327       .  S
H619        C624   1.081       .  S
O620       Mg628   2.188       .  S
O620        C623   1.241       .  S
H621        C623   1.081       .  S
H622        C625   1.081       .  S
O627       Mg634   2.329       .  S
C630        O635   1.268       .  A
O631        C632   1.256       .  A
C632        C659   1.476       .  S
C637        C638   1.407       .  A
C637        C642   1.401       .  A
C637        C956   1.476       .  S
C638        C639   1.406       .  A
C638        H643   1.084       .  S
C639        C640   1.406       .  A
C640        C641   1.413       .  A
C640        H644   1.085       .  S
C641        C642   1.387       .  A
C642        H645   1.085       .  S
C646        C647   1.413       .  A
C646        C651   1.403       .  A
C646        C676   1.480       .  S
C647        C648   1.410   1_545  A
C647        H652   1.083       .  S
C648        C649   1.407       .  A
C649        C650   1.410   1_565  A
C649        H653   1.085       .  S
C650        C651   1.387       .  A
C651        H654   1.085       .  S
C655        C656   1.414       .  A
C655        C660   1.404       .  A
C655        C998   1.480       .  S
C656        C657   1.409       .  A
C656        H661   1.083       .  S
C657        C658   1.405       .  A
C658        C659   1.410       .  A
C658        H662   1.085       .  S
C659        C660   1.387       .  A
C660        H663   1.085       .  S
C664        C665   1.409       .  A
C664        C669   1.405       .  A
C664        C690   1.499       .  S
C665        C666   1.400       .  A
C665        H670   1.083       .  S
C666        C667   1.402       .  A
C666        C701   1.489       .  S
C667        C668   1.400       .  A
C667        H671   1.084       .  S
C668        C669   1.406       .  A
C668        C673   1.490       .  S
C669        H672   1.083       .  S
C673        C674   1.418       .  A
C673        C678   1.412       .  A
C674        C675   1.409       .  A
C674        C679   1.452       .  S
C675        C676   1.408       .  A
C675        C682   1.450       .  S
C676        C677   1.413       .  A
C677        C678   1.410       .  A
C677        C680   1.452       .  S
C678        C681   1.451       .  S
C679        N686   1.157       .  T
C680        N685   1.157       .  T
C681        N683   1.157       .  T
C682        N684   1.157       .  T
C687        C688   1.412       .  A
C687        C692   1.405       .  A
C688        C689   1.408       .  A
C688        C693   1.452       .  S
C689        C690   1.416       .  A
C689        C696   1.452       .  S
C690        C691   1.422       .  A
C691        C692   1.412       .  A
C691        C694   1.450       .  S
C692        C695   1.450       .  S
C693        N700   1.157       .  T
C694        N699   1.158       .  T
C695        N697   1.157       .  T
C696        N698   1.157       .  T
C701        C702   1.416       .  A
C701        C706   1.413       .  A
C702        C703   1.411       .  A
C702        C707   1.451       .  S
C703        C704   1.408       .  A
C703        C710   1.448       .  S
C704        C705   1.413       .  A
C705        C706   1.408       .  A
C705        C708   1.452       .  S
C706        C709   1.451       .  S
C707        N714   1.157       .  T
C708        N713   1.157       .  T
C709        N711   1.157       .  T
C710        N712   1.157       .  T
C715        C716   1.409       .  A
C715        C720   1.413       .  A
C716        C717   1.410       .  A
C716        C721   1.450       .  S
C717        C718   1.414       .  A
C717        C724   1.450       .  S
C718        C719   1.412       .  A
C719        C720   1.409       .  A
C719        C722   1.451       .  S
C720        C723   1.451       .  S
C721        N728   1.157       .  T
C722        N727   1.157       .  T
C723        N725   1.157       .  T
C724        N726   1.157       .  T
C729        C730   1.415       .  A
C729        C734   1.419       .  A
C730        C731   1.408       .  A
C730        C735   1.452       .  S
C731        C732   1.411       .  A
C731        C738   1.452       .  S
C732        C733   1.405       .  A
C733        C734   1.409       .  A
C733        C736   1.449       .  S
C734        C737   1.451       .  S
C735        N742   1.157       .  T
C736        N741   1.157       .  T
C737        N739   1.158       .  T
C738        N740   1.157       .  T
C743        C744   1.417       .  A
C743        C748   1.412       .  A
C744        C745   1.409       .  A
C744        C749   1.451       .  S
C745        C746   1.406       .  A
C745        C752   1.449       .  S
C746        C747   1.412       .  A
C747        C748   1.406       .  A
C747        C750   1.452       .  S
C748        C751   1.452       .  S
C749        N756   1.157       .  T
C750        N755   1.157       .  T
C751        N753   1.157       .  T
C752        N754   1.157       .  T
C757        C758   1.410       .  A
C757        C762   1.416       .  A
C758        C759   1.405       .  A
C758        C763   1.452       .  S
C759        C760   1.415       .  A
C759        C766   1.452       .  S
C760        C761   1.407       .  A
C761        C762   1.409       .  A
C761        C764   1.450       .  S
C762        C765   1.450       .  S
C763        N770   1.157       .  T
C764        N769   1.157       .  T
C765        N767   1.157       .  T
C766        N768   1.157       .  T
C771        C772   1.415       .  A
C771        C776   1.426       .  A
C772        C773   1.395       .  A
C772        C777   1.454       .  S
C773        C774   1.416       .  A
C773        C780   1.454       .  S
C774        C775   1.410       .  A
C775        C776   1.419       .  A
C775        C778   1.449       .  S
C776        C779   1.449       .  S
C777        N784   1.158       .  T
C778        N783   1.157       .  T
C779        N781   1.157       .  T
C780        N782   1.157       .  T
C785        C786   1.432       .  A
C785        C790   1.429       .  A
C786        C787   1.396       .  A
C786        C791   1.452       .  S
C787        C788   1.407       .  A
C787        C794   1.456       .  S
C788        C789   1.408       .  A
C789        C790   1.418       .  A
C789        C792   1.448       .  S
C790        C793   1.448       .  S
C791        N798   1.158       .  T
C792        N797   1.157       .  T
C793        N795   1.157       .  T
C794        N796   1.157       .  T
C799        C800   1.416       .  A
C799        C804   1.406       .  A
C800        C801   1.402       .  A
C800        C805   1.454       .  S
C801        C802   1.410       .  A
C801        C808   1.453       .  S
C802        C803   1.417       .  A
C803        C804   1.411       .  A
C803        C806   1.450       .  S
C804        C807   1.449       .  S
C805        N812   1.158       .  T
C806        N811   1.157       .  T
C807        N809   1.157       .  T
C808        N810   1.157       .  T
C813        C814   1.423       .  A
C813        C818   1.428       .  A
C814        C815   1.393       .  A
C814        C819   1.453       .  S
C815        C816   1.409       .  A
C815        C822   1.455       .  S
C816        C817   1.410       .  A
C817        C818   1.423       .  A
C817        C820   1.448       .  S
C818        C821   1.448       .  S
C819        N826   1.157       .  T
C820        N825   1.157       .  T
C821        N823   1.157       .  T
C822        N824   1.157       .  T
C827        C828   1.412       .  A
C827        C832   1.418       .  A
C828        C829   1.407       .  A
C828        C833   1.451       .  S
C829        C830   1.413       .  A
C829        C836   1.452       .  S
C830        C831   1.407       .  A
C831        C832   1.411       .  A
C831        C834   1.449       .  S
C832        C835   1.450       .  S
C833        N840   1.157       .  T
C834        N839   1.157       .  T
C835        N837   1.157       .  T
C836        N838   1.157       .  T
C841        C842   1.411       .  A
C841        C846   1.411       .  A
C842        C843   1.410       .  A
C842        C847   1.450       .  S
C843        C844   1.413       .  A
C843        C850   1.450       .  S
C844        C845   1.414       .  A
C845        C846   1.408       .  A
C845        C848   1.452       .  S
C846        C849   1.452       .  S
C847        N854   1.157       .  T
C848        N853   1.157       .  T
C849        N851   1.157       .  T
C850        N852   1.157       .  T
C855        C856   1.427       .  A
C855        C860   1.429       .  A
C856        C857   1.396       .  A
C856        C861   1.452       .  S
C857        C858   1.408       .  A
C857        C864   1.456       .  S
C858        C859   1.406       .  A
C859        C860   1.419       .  A
C859        C862   1.448       .  S
C860        C863   1.449       .  S
C861        N868   1.158       .  T
C862        N867   1.157       .  T
C863        N865   1.157       .  T
C864        N866   1.157       .  T
C869        C870   1.405       .  A
C869        C874   1.415       .  A
C870        C871   1.410       .  A
C870        C875   1.449       .  S
C871        C872   1.415       .  A
C871        C878   1.450       .  S
C872        C873   1.409       .  A
C873        C874   1.405       .  A
C873        C876   1.452       .  S
C874        C877   1.453       .  S
C875        N882   1.157       .  T
C876        N881   1.157       .  T
C877        N879   1.157       .  T
C878        N880   1.157       .  T
C883        C884   1.415       .  A
C883        C888   1.411       .  A
C884        C885   1.409       .  A
C884        C889   1.452       .  S
C885        C886   1.409       .  A
C885        C892   1.449       .  S
C886        C887   1.414       .  A
C887        C888   1.409       .  A
C887        C890   1.452       .  S
C888        C891   1.451       .  S
C889        N896   1.157       .  T
C890        N895   1.157       .  T
C891        N893   1.157       .  T
C892        N894   1.157       .  T
C897        C898   1.409       .  A
C897        C902   1.413       .  A
C898        C899   1.409       .  A
C898        C903   1.450       .  S
C899        C900   1.413       .  A
C899        C906   1.451       .  S
C900        C901   1.411       .  A
C901        C902   1.410       .  A
C901        C904   1.450       .  S
C902        C905   1.451       .  S
C903        N910   1.157       .  T
C904        N909   1.157       .  T
C905        N907   1.157       .  T
C906        N908   1.157       .  T
C911        C912   1.413       .  A
C911        C916   1.410       .  A
C912        C913   1.409       .  A
C912        C917   1.452       .  S
C913        C914   1.412       .  A
C913        C920   1.451       .  S
C914        C915   1.414       .  A
C915        C916   1.410       .  A
C915        C918   1.451       .  S
C916        C919   1.451       .  S
C917        N924   1.157       .  T
C918        N923   1.157       .  T
C919        N921   1.157       .  T
C920        N922   1.157       .  T
C925        C926   1.413       .  A
C925        C930   1.409       .  A
C926        C927   1.404       .  A
C926        C931   1.453       .  S
C927        C928   1.411       .  A
C927        C934   1.452       .  S
C928        C929   1.413       .  A
C929        C930   1.411       .  A
C929        C932   1.450       .  S
C930        C933   1.450       .  S
C931        N938   1.157       .  T
C932        N937   1.157       .  T
C933        N935   1.157       .  T
C934        N936   1.157       .  T
C939        C940   1.402       .  A
C939        C944   1.416       .  A
C940        C941   1.385       .  A
C940        C945   1.452       .  S
C941        C942   1.418       .  A
C941        C948   1.453       .  S
C942        C943   1.420       .  A
C943        C944   1.422       .  A
C943        C946   1.447       .  S
C944        C947   1.448       .  S
C945        N952   1.158       .  T
C946        N951   1.157       .  T
C947        N949   1.157       .  T
C948        N950   1.157       .  T
C953        C954   1.425       .  A
C953        C958   1.413       .  A
C954        C955   1.409       .  A
C954        C959   1.446       .  S
C955        C956   1.402       .  A
C955        C962   1.451       .  S
C956        C957   1.412       .  A
C957        C958   1.407       .  A
C957        C960   1.451       .  S
C958        C961   1.450       .  S
C959        N966   1.158       .  T
C960        N965   1.157       .  T
C961        N963   1.157       .  T
C962        N964   1.157       .  T
C967        C968   1.412       .  A
C967        C972   1.417       .  A
C968        C969   1.406       .  A
C968        C973   1.451       .  S
C969        C970   1.412       .  A
C969        C976   1.452       .  S
C970        C971   1.405       .  A
C971        C972   1.408       .  A
C971        C974   1.449       .  S
C972        C975   1.451       .  S
C973        N980   1.157       .  T
C974        N979   1.157       .  T
C975        N977   1.157       .  T
C976        N978   1.157       .  T
C981        C982   1.414       .  A
C981        C986   1.410       .  A
C982        C983   1.409       .  A
C982        C987   1.451       .  S
C983        C984   1.409       .  A
C983        C990   1.451       .  S
C984        C985   1.413       .  A
C985        C986   1.408       .  A
C985        C988   1.451       .  S
C986        C989   1.451       .  S
C987        N994   1.157       .  T
C988        N993   1.157       .  T
C989        N991   1.157       .  T
C990        N992   1.157       .  T
C995        C996   1.411       .  A
C995       C1000   1.415       .  A
C996        C997   1.409       .  A
C996       C1001   1.451       .  S
C997        C998   1.414       .  A
C997       C1004   1.452       .  S
C998        C999   1.410       .  A
C999       C1000   1.409       .  A
C999       C1002   1.451       .  S
C1000      C1003   1.452       .  S
C1001      N1008   1.157       .  T
C1002      N1007   1.157       .  T
C1003      N1005   1.157       .  T
C1004      N1006   1.157       .  T
