geometry optimzed in LAMMPS
_audit_creation_date              2020-11-30 
_audit_creation_method            'lammps2cif' 
_symmetry_space_group_name_H-M    'P1' 
_symmetry_Int_Tables_number       1 
_symmetry_cell_setting            triclinic 
loop_ 
_symmetry_equiv_pos_as_xyz 
  x,y,z 
_cell_length_a                    37.28677352 
_cell_length_b                    37.25077819598691 
_cell_length_c                    37.188248132830104 
_cell_angle_alpha                 90.42124242659105 
_cell_angle_beta                  90.37293454977146 
_cell_angle_gamma                 89.35528644910936 
loop_ 
_atom_site_label 
_atom_site_type_symbol 
_atom_site_fract_x 
_atom_site_fract_y 
_atom_site_fract_z 
_atom_site_charge 
In1        In  0.63083709  0.50289829  0.00234274     1.36900
C2          C  0.62786302  0.57226142  0.00634040     0.78700
O3          O  0.59235972  0.49760712  0.04763938    -0.59700
O4          O  0.64721667  0.50776713  0.06048585    -0.50600
C5          C  0.64186168  0.43363229  0.99780298     0.71400
O6          O  0.61104767  0.44827636  0.99918152    -0.45500
C7          C  0.61566356  0.50345571  0.93241374     0.76100
O8          O  0.60042713  0.55243487  0.00486172    -0.57400
O9          O  0.64796759  0.50551273  0.94362662    -0.47400
O10         O  0.65837898  0.55635760  0.00366617    -0.53800
C11         C  0.61568018  0.50282801  0.07226965     0.86300
O12         O  0.66854552  0.45474683  0.00101053    -0.55700
O13         O  0.59271933  0.50257003  0.95749624    -0.59000
In14       In  0.40180138  0.73928564  0.00355400     1.36900
C15         C  0.33180117  0.74169698  0.99681309     0.78700
O16         O  0.40254240  0.69729109  0.04385776    -0.59700
O17         O  0.40355243  0.75056723  0.06417476    -0.50600
C18         C  0.47016460  0.75258858  0.00433356     0.71400
O19         O  0.45704005  0.72152846  0.00592716    -0.45500
C20         C  0.40821839  0.71624794  0.93622601     0.76100
O21         O  0.35042066  0.71322313  0.99721175    -0.57400
O22         O  0.40720436  0.69610680  0.96353426    -0.47400
O23         O  0.34908832  0.77089197  0.00130716    -0.53800
C24         C  0.40483508  0.71722991  0.07137852     0.86300
O25         O  0.44768454  0.77876945  0.00294284    -0.55700
O26         O  0.40581798  0.74959755  0.94370042    -0.59000
In27       In  0.41509875  0.27759342  0.99079027     1.36900
C28         C  0.48461079  0.26541970  0.99270068     0.78700
O29         O  0.41443721  0.31879700  0.03422856    -0.59700
O30         O  0.41406840  0.26410449  0.05048222    -0.50600
C31         C  0.34514954  0.27288853  0.98820799     0.71400
O32         O  0.36207640  0.30208959  0.98612561    -0.45500
C33         C  0.41810906  0.29442207  0.92107679     0.76100
O34         O  0.47025838  0.29634955  0.99378455    -0.57400
O35         O  0.41456935  0.26217691  0.93147325    -0.47400
O36         O  0.46293555  0.23912230  0.99043318    -0.53800
C37         C  0.41419062  0.29689583  0.06034041     0.86300
O38         O  0.36445312  0.24456724  0.99214364    -0.55700
O39         O  0.41908559  0.31738057  0.94666053    -0.59000
In40       In  0.18171301  0.49679005  0.99986303     1.36900
C41         C  0.17179217  0.42765942  0.00525425     0.78700
O42         O  0.22373776  0.49496935  0.04242362    -0.59700
O43         O  0.16974751  0.50198546  0.05932644    -0.50600
C44         C  0.16949472  0.56611139  0.00159770     0.71400
O45         O  0.20011187  0.55156711  0.00431432    -0.45500
C46         C  0.20651052  0.49904873  0.93237053     0.76100
O47         O  0.20190309  0.44251056  0.00254688    -0.57400
O48         O  0.22604566  0.49821459  0.96040555    -0.47400
O49         O  0.14445389  0.44851105  0.00264719    -0.53800
C50         C  0.20261480  0.50100959  0.06854100     0.86300
O51         O  0.14321658  0.54469107  0.99736673    -0.55700
O52         O  0.17315915  0.49794123  0.93915413    -0.59000
In53       In  0.41199051  0.99793976  0.72715190     1.36900
C54         C  0.34298561  0.00363447  0.73777739     0.78700
O55         O  0.40911210  0.95539729  0.68556833    -0.59700
O56         O  0.40810580  0.93863209  0.74014630    -0.50600
C57         C  0.48128252  0.99360145  0.73714211     0.71400
O58         O  0.46566388  0.98823421  0.70739192    -0.45500
C59         C  0.41559099  0.06537774  0.70308187     0.76100
O60         O  0.35762296  0.00452177  0.70725747    -0.57400
O61         O  0.41460124  0.03751589  0.68328435    -0.47400
O62         O  0.36413560  0.99940354  0.76464679    -0.53800
C63         C  0.40796702  0.92919961  0.70718532     0.86300
O64         O  0.46089789  0.00059748  0.76385886    -0.55700
O65         O  0.41557575  0.05841940  0.73649984    -0.59000
In66       In  0.63020211  0.00606279  0.49085704     1.36900
C67         C  0.63709779  0.01648174  0.56002919     0.78700
O68         O  0.59007812  0.96236214  0.49924272    -0.59700
O69         O  0.64488541  0.94619337  0.49534538    -0.50600
C70         C  0.63353291  0.00153403  0.42072904     0.71400
O71         O  0.60470243  0.00048834  0.43854621    -0.45500
C72         C  0.61386651  0.07566195  0.48576940     0.76100
O73         O  0.60744809  0.01835555  0.54325070    -0.57400
O74         O  0.64649249  0.06515950  0.48768471    -0.47400
O75         O  0.66472348  0.00904288  0.54096146    -0.53800
C76         C  0.61259201  0.93636831  0.49979632     0.86300
O77         O  0.66238939  0.00489597  0.43922626    -0.55700
O78         O  0.59147254  0.05011465  0.48510286    -0.59000
In79       In  0.40138343  0.00390992  0.26946765     1.36900
C80         C  0.33243206  0.99770870  0.25820317     0.78700
O81         O  0.40019641  0.04848568  0.30901350    -0.59700
O82         O  0.39846314  0.06289426  0.25383145    -0.50600
C83         C  0.47015010  0.00792482  0.25665700     0.71400
O84         O  0.45670048  0.00977402  0.28777097    -0.45500
C85         C  0.40301266  0.93648011  0.29372001     0.76100
O86         O  0.34666999  0.00090938  0.28896575    -0.57400
O87         O  0.40164441  0.96407815  0.31403265    -0.47400
O88         O  0.35374847  0.99916770  0.23151678    -0.53800
C89         C  0.39994744  0.07377890  0.28627602     0.86300
O90         O  0.44807203  0.00261010  0.23082118    -0.55700
O91         O  0.40596241  0.94395249  0.26060409    -0.59000
In92       In  0.18128607  0.99628115  0.49871477     1.36900
C93         C  0.17720477  0.99362010  0.56891329     0.78700
O94         O  0.22366722  0.03793175  0.49825291    -0.59700
O95         O  0.16943781  0.05634341  0.49933315    -0.50600
C96         C  0.17292085  0.99901172  0.42939197     0.71400
O97         O  0.20307194  0.99726026  0.44516935    -0.45500
C98         C  0.19663532  0.92621968  0.49766107     0.76100
O99         O  0.20618467  0.99052482  0.55153652    -0.57400
O100        O  0.21934043  0.95128839  0.49535242    -0.47400
O101        O  0.14886499  0.99910839  0.55007088    -0.53800
C102        C  0.20241455  0.06485200  0.49826547     0.86300
O103        O  0.14523703  0.99787200  0.44952718    -0.55700
O104        O  0.16423212  0.93740759  0.49859118    -0.59000
In105      In  0.91558023  0.50048581  0.73475895     1.36900
C106        C  0.91736235  0.56966137  0.74625403     0.78700
O107        O  0.87285332  0.50915439  0.69366623    -0.59700
O108        O  0.85644706  0.49631845  0.74648489    -0.50600
C109        C  0.91135067  0.43173073  0.74416481     0.71400
O110        O  0.91087430  0.44658269  0.71365536    -0.45500
C111        C  0.98331180  0.49560205  0.71259199     0.76100
O112        O  0.91876379  0.55490110  0.71561522    -0.57400
O113        O  0.97568583  0.49770150  0.74582893    -0.47400
O114        O  0.91485916  0.54848613  0.77300026    -0.53800
C115        C  0.84671159  0.50411702  0.71472713     0.86300
O116        O  0.91524052  0.45246819  0.77143124    -0.55700
O117        O  0.95598844  0.49563524  0.69203197    -0.59000
In118      In  0.90255974  0.72275298  0.50946484     1.36900
C119        C  0.89982474  0.73283598  0.57940212     0.78700
O120        O  0.94638814  0.68000479  0.50544359    -0.59700
O121        O  0.96261429  0.73437477  0.50800026    -0.50600
C122        C  0.89917147  0.74011332  0.44160464     0.71400
O123        O  0.89787467  0.70837022  0.45317770    -0.45500
C124        C  0.83297860  0.70476277  0.50571830     0.76100
O125        O  0.89839531  0.70232564  0.56432438    -0.57400
O126        O  0.85888580  0.68205479  0.50578317    -0.47400
O127        O  0.90331570  0.75945477  0.55838940    -0.53800
C128        C  0.97248539  0.70181036  0.50475472     0.86300
O129        O  0.90243947  0.76472759  0.46543252    -0.55700
O130        O  0.84292704  0.73717663  0.50869361    -0.59000
In131      In  0.91044496  0.50121331  0.28062193     1.36900
C132        C  0.91188977  0.57094518  0.27846472     0.78700
O133        O  0.95611588  0.49926574  0.31883276    -0.59700
O134        O  0.96907618  0.50073131  0.26305618    -0.50600
C135        C  0.91090334  0.43195129  0.27015490     0.71400
O136        O  0.91114988  0.44682161  0.30090591    -0.45500
C137        C  0.84124721  0.49791574  0.29941325     0.76100
O138        O  0.91357614  0.55290832  0.30716393    -0.57400
O139        O  0.85090315  0.49874061  0.26663939    -0.47400
O140        O  0.90800867  0.55296660  0.24926308    -0.53800
C141        C  0.98080038  0.49945241  0.29529298     0.86300
O142        O  0.91117061  0.45302668  0.24315204    -0.55700
O143        O  0.86711315  0.50083031  0.32177866    -0.59000
In144      In  0.91054487  0.27548813  0.50759056     1.36900
C145        C  0.90912094  0.26496608  0.57690892     0.78700
O146        O  0.85167230  0.26136218  0.50835147    -0.59700
O147        O  0.86639074  0.31636107  0.50387707    -0.50600
C148        C  0.91510523  0.26711236  0.43782921     0.71400
O149        O  0.91379175  0.29730259  0.45363039    -0.45500
C150        C  0.98013636  0.29257951  0.50588283     0.76100
O151        O  0.90999327  0.29575077  0.56267848    -0.57400
O152        O  0.96972111  0.26022169  0.50720966    -0.47400
O153        O  0.90922867  0.23820038  0.55522675    -0.53800
C154        C  0.84105084  0.29376541  0.50555461     0.86300
O155        O  0.91224002  0.23961724  0.45797174    -0.55700
O156        O  0.95459127  0.31529243  0.50932100    -0.59000
C157        C  0.80736111  0.50497188  0.70115181    -0.01400
C158        C  0.60361858  0.50325568  0.89242496    -0.01400
C159        C  0.40641214  0.88985815  0.69352476    -0.01400
C160        C  0.41196057  0.70072419  0.89786457    -0.01400
C161        C  0.79341918  0.69256648  0.50265204    -0.01400
C162        C  0.60007264  0.89690872  0.50450565    -0.01400
C163        C  0.40106677  0.11375238  0.29808914    -0.01400
C164        C  0.41486445  0.30994137  0.10009250    -0.01400
C165        C  0.02100668  0.49615254  0.30628750    -0.01400
C166        C  0.21695305  0.50761657  0.10725423    -0.01400
C167        C  0.01975054  0.30441547  0.50050156    -0.01400
C168        C  0.21611962  0.10403170  0.49873284    -0.01400
C169        C  0.22254832  0.50195229  0.89398854    -0.01400
C170        C  0.02181043  0.49365807  0.69745847    -0.01400
C171        C  0.20917368  0.88630668  0.49853415    -0.01400
C172        C  0.01224369  0.68900712  0.50098271    -0.01400
C173        C  0.40195545  0.89765875  0.30870020    -0.01400
C174        C  0.40695549  0.70104145  0.10951977    -0.01400
C175        C  0.80187089  0.49429678  0.31212530    -0.01400
C176        C  0.60492905  0.50356285  0.11241959    -0.01400
C177        C  0.42195258  0.30624376  0.88142501    -0.01400
C178        C  0.41642953  0.10372589  0.68719594    -0.01400
C179        C  0.80134534  0.30612015  0.50449924    -0.01400
C180        C  0.60077212  0.11537198  0.48495236    -0.01400
C181        C  0.71351207  0.25268954  0.52354881    -0.27100
C182        C  0.71945013  0.22036142  0.50469092     0.06500
C183        C  0.75246984  0.21557609  0.48732499     0.26200
C184        C  0.77864099  0.24251641  0.48842294    -0.11600
C185        C  0.77372870  0.27489037  0.50815446    -0.25500
C186        C  0.73986076  0.27964088  0.52513180     0.37000
C187        C  0.69002010  0.19344219  0.49973201     0.06600
F188        F  0.75893511  0.18519037  0.46798165    -0.19300
H189        H  0.80242466  0.23823521  0.47245826     0.16400
F190        F  0.73093223  0.31108774  0.54156734    -0.23000
H191        H  0.68779924  0.25762240  0.53615118     0.18200
C192        C  0.68508811  0.16487974  0.52363634     0.26200
C193        C  0.65759256  0.13961676  0.51776026    -0.11500
C194        C  0.63328951  0.14225432  0.48829692    -0.25600
C195        C  0.63989441  0.17062694  0.46357100     0.37100
C196        C  0.66740781  0.19556834  0.46962037    -0.27200
F197        F  0.70677853  0.16148044  0.55287246    -0.19300
H198        H  0.65442213  0.11840271  0.53720263     0.16400
F199        F  0.62048292  0.17503969  0.43298549    -0.23000
H200        H  0.67120368  0.21683211  0.45033016     0.18200
C201        C  0.50494623  0.08877429  0.63332338    -0.27100
C202        C  0.50210088  0.11625701  0.60793507     0.06500
C203        C  0.47353638  0.14074768  0.61008088     0.26200
C204        C  0.44771137  0.13732113  0.63679563    -0.11600
C205        C  0.44873794  0.10845217  0.66143393    -0.25500
C206        C  0.47912555  0.08517175  0.66026025     0.37000
C207        C  0.52701945  0.11749278  0.57730259     0.06600
F208        F  0.46976896  0.16709413  0.58527556    -0.19300
H209        H  0.42594266  0.15677175  0.63744553     0.16400
F210        F  0.48480734  0.05954713  0.68534774    -0.23000
H211        H  0.52695599  0.06966526  0.63188175     0.18200
C212        C  0.55587628  0.14126140  0.57667103     0.26200
C213        C  0.57898712  0.14183360  0.54699262    -0.11500
C214        C  0.57390953  0.11848837  0.51714666    -0.25600
C215        C  0.54204600  0.09758893  0.51710996     0.37100
C216        C  0.51995804  0.09634695  0.54711976    -0.27200
F217        F  0.56174276  0.16385686  0.60483170    -0.19300
H218        H  0.60038835  0.16102293  0.54782287     0.16400
F219        F  0.53111414  0.07903947  0.48751673    -0.23000
H220        H  0.49653334  0.07938360  0.54642876     0.18200
C221        C  0.44654766  0.18101802  0.75366452    -0.27100
C222        C  0.41713495  0.18437820  0.77666019     0.06500
C223        C  0.38850282  0.16050543  0.77174610     0.26200
C224        C  0.38925661  0.13445006  0.74394117    -0.11600
C225        C  0.41789821  0.13203467  0.71905751    -0.25500
C226        C  0.44733813  0.15549484  0.72562850     0.37000
C227        C  0.41633777  0.21394658  0.80439487     0.06600
F228        F  0.35969646  0.16238367  0.79381279    -0.19300
H229        H  0.36666847  0.11660053  0.74108297     0.16400
F230        F  0.47776637  0.15407735  0.70593142    -0.23000
H231        H  0.46916055  0.19874155  0.75720276     0.18200
C232        C  0.43781548  0.21260233  0.83559612     0.26200
C233        C  0.43909291  0.24202995  0.85972075    -0.11500
C234        C  0.41865442  0.27385593  0.85405127    -0.25600
C235        C  0.39888478  0.27544780  0.82109048     0.37100
C236        C  0.39715162  0.24573128  0.79752961    -0.27200
F237        F  0.45806254  0.18292175  0.84252199    -0.19300
H238        H  0.45674028  0.24002878  0.88286059     0.16400
F239        F  0.38311174  0.30627912  0.80959848    -0.23000
H240        H  0.38192708  0.24819400  0.77273973     0.18200
C241        C  0.75821632  0.41442397  0.36296101    -0.27100
C242        C  0.78821549  0.39580906  0.37694623     0.06500
C243        C  0.82237352  0.40679733  0.36598110     0.26200
C244        C  0.82636841  0.43619518  0.34338663    -0.11600
C245        C  0.79680094  0.45738612  0.33169225    -0.25500
C246        C  0.76226898  0.44477028  0.34100409     0.37000
C247        C  0.78474672  0.36722568  0.40504921     0.06600
F248        F  0.85261816  0.39076379  0.37899139    -0.19300
H249        H  0.85351863  0.44246848  0.33685101     0.16400
F250        F  0.73222561  0.46288576  0.33065134    -0.23000
H251        H  0.73139955  0.40615110  0.36980549     0.18200
C252        C  0.76075849  0.37098498  0.43403474     0.26200
C253        C  0.76347059  0.34808877  0.46379828    -0.11500
C254        C  0.79260630  0.32370400  0.46742202    -0.25600
C255        C  0.81248606  0.31615075  0.43588946     0.37100
C256        C  0.80835103  0.33750179  0.40528959    -0.27200
F257        F  0.73680466  0.39863795  0.43539359    -0.19300
H258        H  0.74534158  0.35256767  0.48603101     0.16400
F259        F  0.83584338  0.28809122  0.43415105    -0.23000
H260        H  0.82497980  0.33160348  0.38223662     0.18200
C261        C  0.74825862  0.47088866  0.22428985    -0.27100
C262        C  0.72158363  0.49810732  0.22288856     0.06500
C263        C  0.72223304  0.52462208  0.24995189     0.26200
C264        C  0.74736690  0.52320633  0.27794089    -0.11600
C265        C  0.77479828  0.49651123  0.27958967    -0.25500
C266        C  0.77459991  0.47023706  0.25184347     0.37000
C267        C  0.69253713  0.49876673  0.19431032     0.06600
F268        F  0.69856272  0.55257924  0.24949839    -0.19300
H269        H  0.74402975  0.54332026  0.29864153     0.16400
F270        F  0.79907364  0.44298819  0.25209168    -0.23000
H271        H  0.74832966  0.44943679  0.20451393     0.18200
C272        C  0.69949032  0.49023023  0.15807760     0.26200
C273        C  0.67196107  0.49160690  0.13199264    -0.11500
C274        C  0.63672632  0.50384648  0.14027814    -0.25600
C275        C  0.62992483  0.51125518  0.17709162     0.37100
C276        C  0.65707007  0.50840458  0.20328737    -0.27200
F277        F  0.73305275  0.48071533  0.14748761    -0.19300
H278        H  0.67888074  0.48151348  0.10575527     0.16400
F279        F  0.59670425  0.52114548  0.18828830    -0.23000
H280        H  0.64995482  0.51352900  0.23103759     0.18200
C281        C  0.47980351  0.62880872  0.08570420    -0.27100
C282        C  0.50286315  0.62811037  0.11552752     0.06500
C283        C  0.49652895  0.65370118  0.14305032     0.26200
C284        C  0.46716141  0.67825853  0.14060390    -0.11600
C285        C  0.44209775  0.67688468  0.11157228    -0.25500
C286        C  0.44870861  0.64972219  0.08526431     0.37000
C287        C  0.52965431  0.59738623  0.11805475     0.06600
F288        F  0.51730537  0.65381653  0.17314170    -0.19300
H289        H  0.46305442  0.69669158  0.16280582     0.16400
F290        F  0.42355618  0.63956797  0.06095589    -0.23000
H291        H  0.48396752  0.61027378  0.06351154     0.18200
C292        C  0.51921405  0.56309024  0.10606975     0.26200
C293        C  0.54405303  0.53520856  0.10218548    -0.11500
C294        C  0.57964142  0.53770242  0.11510907    -0.25600
C295        C  0.59059357  0.57233274  0.12705326     0.37100
C296        C  0.56582375  0.60162234  0.12859351    -0.27200
F297        F  0.48439515  0.55604856  0.09806915    -0.19300
H298        H  0.53455860  0.51057338  0.09004912     0.16400
F299        F  0.62545282  0.57862300  0.13534717    -0.23000
H300        H  0.57527013  0.62784179  0.13675988     0.18200
C301        C  0.38224307  0.84626756  0.21873511    -0.27100
C302        C  0.40637640  0.81714581  0.21997962     0.06500
C303        C  0.42956215  0.81432649  0.24972635     0.26200
C304        C  0.42919983  0.84046494  0.27724533    -0.11600
C305        C  0.40476125  0.86993575  0.27674338    -0.25500
C306        C  0.38111151  0.87205593  0.24658127     0.37000
C307        C  0.40592834  0.78861259  0.19140474     0.06600
F308        F  0.45177141  0.78538453  0.25285209    -0.19300
H309        H  0.44762015  0.83651117  0.29941225     0.16400
F310        F  0.35525466  0.89795982  0.24495996    -0.23000
H311        H  0.36353203  0.84858555  0.19644843     0.18200
C312        C  0.37910706  0.76254208  0.19092139     0.26200
C313        C  0.37959045  0.73459848  0.16535149    -0.11500
C314        C  0.40647080  0.73195886  0.13850930    -0.25600
C315        C  0.43310575  0.75889085  0.13904264     0.37100
C316        C  0.43290276  0.78646211  0.16525240    -0.27200
F317        F  0.35264727  0.76364724  0.21582720    -0.19300
H318        H  0.35858542  0.71500690  0.16727273     0.16400
F319        F  0.45986679  0.75823209  0.11447847    -0.23000
H320        H  0.45396014  0.80624952  0.16514487     0.18200
C321        C  0.31019732  0.86321105  0.34661585    -0.27100
C322        C  0.30455053  0.88728714  0.37506576     0.06500
C323        C  0.32902757  0.91491823  0.38074483     0.26200
C324        C  0.35923792  0.91784723  0.35902284    -0.11600
C325        C  0.36590260  0.89398900  0.32989793    -0.25500
C326        C  0.34039557  0.86603971  0.32442607     0.37000
C327        C  0.27732486  0.88032104  0.40288924     0.06600
F328        F  0.32477906  0.93795264  0.40890119    -0.19300
H329        H  0.37854967  0.93795004  0.36662676     0.16400
F330        F  0.34547616  0.83910545  0.30027977    -0.23000
H331        H  0.29219007  0.84085661  0.34280581     0.18200
C332        C  0.28795163  0.86303534  0.43458082     0.26200
C333        C  0.26521443  0.86251495  0.46423266    -0.11500
C334        C  0.23154353  0.88040478  0.46358905    -0.25600
C335        C  0.21927119  0.89345642  0.42984173     0.37100
C336        C  0.24231921  0.89416812  0.40012291    -0.27200
F337        F  0.32125266  0.84817996  0.43742339    -0.19300
H338        H  0.27484759  0.84907159  0.48814730     0.16400
F339        F  0.18554748  0.90702503  0.42604685    -0.23000
H340        H  0.23331961  0.90678142  0.37548139     0.18200
C341        C  0.11918347  0.83733337  0.52259431    -0.27100
C342        C  0.11987168  0.80684463  0.49998516     0.06500
C343        C  0.14941790  0.80239844  0.47712178     0.26200
C344        C  0.17704881  0.82786973  0.47640335    -0.11600
C345        C  0.17687848  0.85906011  0.49876137    -0.25500
C346        C  0.14722585  0.86274201  0.52244436     0.37000
C347        C  0.09140621  0.77836652  0.50191621     0.06600
F348        F  0.15202865  0.77277166  0.45577943    -0.19300
H349        H  0.19918682  0.82205302  0.45861485     0.16400
F350        F  0.14596116  0.88998846  0.54681384    -0.23000
H351        H  0.09723369  0.84101800  0.54123124     0.18200
C352        C  0.06010581  0.77966406  0.48054813     0.26200
C353        C  0.03493558  0.75150355  0.48121644    -0.11500
C354        C  0.03950094  0.72113378  0.50366468    -0.25600
C355        C  0.07196474  0.71980409  0.52419686     0.37100
C356        C  0.09687510  0.74802418  0.52346308    -0.27200
F357        F  0.05429392  0.80776319  0.45816130    -0.19300
H358        H  0.01193308  0.75315186  0.46336810     0.16400
F359        F  0.08162584  0.69031455  0.54322439    -0.23000
H360        H  0.12133629  0.74562625  0.53918081     0.18200
C361        C  0.00121418  0.55216378  0.61359343    -0.27100
C362        C  0.02376392  0.58165555  0.61752994     0.06500
C363        C  0.04729438  0.58251734  0.64725807     0.26200
C364        C  0.04775229  0.55440982  0.67257549    -0.11600
C365        C  0.02402135  0.52502759  0.66951598    -0.25500
C366        C  0.00184548  0.52413165  0.63814751     0.37000
C367        C  0.02359159  0.60953515  0.58876380     0.06600
F368        F  0.07080777  0.60983260  0.65112169    -0.19300
H369        H  0.06740969  0.55576999  0.69389868     0.16400
F370        F  0.98146264  0.49523627  0.62981554    -0.23000
H371        H  0.98317818  0.55037800  0.59070033     0.18200
C372        C  0.02559570  0.59884506  0.55256737     0.26200
C373        C  0.02134262  0.62373375  0.52502500    -0.11500
C374        C  0.01705836  0.66102416  0.53202486    -0.25600
C375        C  0.01432900  0.67151115  0.56870958     0.37100
C376        C  0.01791568  0.64615479  0.59655538    -0.27200
F377        F  0.03121420  0.56382956  0.54355797    -0.19300
H378        H  0.02049440  0.61265785  0.49818024     0.16400
F379        F  0.00797097  0.70638860  0.57761975    -0.23000
H380        H  0.01521385  0.65501075  0.62421865     0.18200
C381        C  0.27759716  0.41860132  0.85695623    -0.27100
C382        C  0.30451852  0.41491628  0.88333376     0.06500
C383        C  0.30429116  0.43915846  0.91239908     0.26200
C384        C  0.27864425  0.46668584  0.91440209    -0.11600
C385        C  0.25017498  0.47008964  0.88913795    -0.25500
C386        C  0.25103265  0.44576132  0.85940294     0.37000
C387        C  0.33414351  0.38756538  0.87970237     0.06600
F388        F  0.32906412  0.43641802  0.93920373    -0.19300
H389        H  0.28205105  0.48609201  0.93580920     0.16400
F390        F  0.22851929  0.44946385  0.83091271    -0.23000
H391        H  0.27788970  0.40117340  0.83352162     0.18200
C392        C  0.32732224  0.35114755  0.87267671     0.26200
C393        C  0.35541858  0.32555909  0.87332058    -0.11500
C394        C  0.39173224  0.33561747  0.87766874    -0.25600
C395        C  0.39789207  0.37254243  0.88558251     0.37100
C396        C  0.36978114  0.39772943  0.88569336    -0.27200
F397        F  0.29318302  0.33982292  0.86757419    -0.19300
H398        H  0.34863845  0.29749648  0.87049905     0.16400
F399        F  0.43048896  0.38466688  0.89612123    -0.23000
H400        H  0.37597999  0.42551899  0.89150709     0.18200
C401        C  0.13827640  0.47113786  0.83905575    -0.27100
C402        C  0.13157289  0.49984685  0.81538483     0.06500
C403        C  0.15390393  0.52995382  0.81825941     0.26200
C404        C  0.18232738  0.53093380  0.84334675    -0.11600
C405        C  0.19045443  0.50153777  0.86620116    -0.25500
C406        C  0.16686895  0.47192508  0.86404412     0.37000
C407        C  0.10238527  0.49777139  0.78702675     0.06600
F408        F  0.14907317  0.55826739  0.79591491    -0.19300
H409        H  0.19780044  0.55523362  0.84438610     0.16400
F410        F  0.17204903  0.44306817  0.88563963    -0.23000
H411        H  0.12125061  0.44778881  0.83824809     0.18200
C412        C  0.09868470  0.46699485  0.76530981     0.26200
C413        C  0.07299153  0.46570147  0.73759635    -0.11500
C414        C  0.04983438  0.49522582  0.72953943    -0.25600
C415        C  0.05202446  0.52510194  0.75333255     0.37100
C416        C  0.07825171  0.52655218  0.78093030    -0.27200
F417        F  0.12069815  0.43811880  0.77005848    -0.19300
H418        H  0.07169468  0.44075417  0.72273712     0.16400
F419        F  0.02898750  0.55331630  0.74974999    -0.23000
H420        H  0.07942389  0.55026171  0.79789231     0.18200
C421        C  0.26487267  0.09225787  0.59104839    -0.27100
C422        C  0.29218830  0.11758178  0.58871716     0.06500
C423        C  0.29203461  0.14141515  0.55971403     0.26200
C424        C  0.26631528  0.13812015  0.53223788    -0.11600
C425        C  0.24078333  0.11018602  0.53231659    -0.25500
C426        C  0.23896173  0.08910337  0.56385884     0.37000
C427        C  0.32298327  0.11548024  0.61402808     0.06600
F428        F  0.31792748  0.16655082  0.55691963    -0.19300
H429        H  0.26743170  0.15657042  0.50993299     0.16400
F430        F  0.21193853  0.06582071  0.56913729    -0.23000
H431        H  0.26402315  0.07430786  0.61382467     0.18200
C432        C  0.32896715  0.14120653  0.64106247     0.26200
C433        C  0.35787427  0.13713304  0.66528998    -0.11500
C434        C  0.38227397  0.10771860  0.66255101    -0.25600
C435        C  0.37721577  0.08405014  0.63264291     0.37100
C436        C  0.34739115  0.08715978  0.61007758    -0.27200
F437        F  0.30717320  0.17050470  0.64373820    -0.19300
H438        H  0.36175071  0.15825497  0.68488126     0.16400
F439        F  0.40250152  0.05951098  0.62278585    -0.23000
H440        H  0.34416697  0.06808283  0.58817175     0.18200
C441        C  0.02878107  0.33776277  0.59905640    -0.27100
C442        C  0.03643415  0.37438577  0.59500164     0.06500
C443        C  0.04347475  0.38710146  0.56027712     0.26200
C444        C  0.04044812  0.36451384  0.53038273    -0.11600
C445        C  0.02870279  0.32871019  0.53364518    -0.25500
C446        C  0.02573724  0.31510006  0.56882008     0.37000
C447        C  0.03582013  0.39991987  0.62614745     0.06600
F448        F  0.05167817  0.42203896  0.55475101    -0.19300
H449        H  0.04707640  0.37592377  0.50471665     0.16400
F450        F  0.02073670  0.27950388  0.57360723    -0.23000
H451        H  0.02513186  0.32670586  0.62561645     0.18200
C452        C  0.00656833  0.40143970  0.64986164     0.26200
C453        C  0.00291197  0.43000764  0.67441099    -0.11500
C454        C  0.02784671  0.45840630  0.67534836    -0.25600
C455        C  0.05884410  0.45461651  0.65378854     0.37100
C456        C  0.06273578  0.42575294  0.62988129    -0.27200
F457        F  0.98022503  0.37663268  0.64782507    -0.19300
H458        H  0.97971720  0.43018660  0.69165730     0.16400
F459        F  0.08501019  0.47965749  0.65502599    -0.23000
H460        H  0.08633685  0.42442219  0.61308009     0.18200
C461        C  0.13036524  0.15890179  0.47077118    -0.27100
C462        C  0.12615515  0.18350710  0.49946332     0.06500
C463        C  0.14847304  0.17879124  0.52983506     0.26200
C464        C  0.17661943  0.15355385  0.52971184    -0.11600
C465        C  0.18303634  0.13054989  0.49990507    -0.25500
C466        C  0.15750323  0.13217323  0.47142520     0.37000
C467        C  0.09918360  0.21412524  0.49796936     0.06600
F468        F  0.14280935  0.19822562  0.56033122    -0.19300
H469        H  0.19306839  0.15230511  0.55368694     0.16400
F470        F  0.16016196  0.10925520  0.44297440    -0.23000
H471        H  0.11321404  0.16078863  0.44725621     0.18200
C472        C  0.10770464  0.24818803  0.51212760     0.26200
C473        C  0.08198997  0.27583836  0.51365621    -0.11500
C474        C  0.04687010  0.27176423  0.49953062    -0.25600
C475        C  0.04018262  0.23905017  0.48077905     0.37100
C476        C  0.06529049  0.21037919  0.48146079    -0.27200
F477        F  0.14165479  0.25564864  0.52298946    -0.19300
H478        H  0.09052988  0.30128391  0.52474499     0.16400
F479        F  0.01040876  0.23502222  0.46007367    -0.23000
H480        H  0.05824364  0.18531597  0.46846781     0.18200
C481        C  0.30937722  0.66546418  0.10185301    -0.27100
C482        C  0.31263643  0.63121381  0.11688321     0.06500
C483        C  0.34562679  0.62053000  0.13185257     0.26200
C484        C  0.37533994  0.64308165  0.13039733    -0.11600
C485        C  0.37323401  0.67694828  0.11347140    -0.25500
C486        C  0.33887114  0.68846140  0.10093619     0.37000
C487        C  0.28301554  0.60511256  0.11380350     0.06600
F488        F  0.34951974  0.58747668  0.14659412    -0.19300
H489        H  0.40012037  0.63349892  0.14236228     0.16400
F490        F  0.33369867  0.72190298  0.08746007    -0.23000
H491        H  0.28396625  0.67427984  0.09047578     0.18200
C492        C  0.27582236  0.58896078  0.08064030     0.26200
C493        C  0.25283408  0.55974764  0.07829298    -0.11500
C494        C  0.23523632  0.54551481  0.10886770    -0.25600
C495        C  0.24129129  0.56394584  0.14200479     0.37100
C496        C  0.26495225  0.59304077  0.14423533    -0.27200
F497        F  0.29329587  0.59967471  0.05068668    -0.19300
H498        H  0.25104453  0.54784470  0.05199911     0.16400
F499        F  0.22608817  0.55314680  0.17300144    -0.23000
H500        H  0.27027412  0.60534271  0.17019295     0.18200
C501        C  0.99842872  0.63796319  0.41012792    -0.27100
C502        C  0.03090158  0.61892502  0.40743642     0.06500
C503        C  0.05941714  0.62884776  0.43009035     0.26200
C504        C  0.05399835  0.65469874  0.45737835    -0.11600
C505        C  0.01959934  0.67019793  0.46377943    -0.25500
C506        C  0.99299544  0.66386485  0.43709009     0.37000
C507        C  0.03282817  0.58673396  0.38344148     0.06600
F508        F  0.09149654  0.61140860  0.42795550    -0.19300
H509        H  0.07578453  0.65961130  0.47606595     0.16400
F510        F  0.96133978  0.68174268  0.43670541    -0.23000
H511        H  0.97654120  0.63175403  0.39190653     0.18200
C512        C  0.01100703  0.55732777  0.39046568     0.26200
C513        C  0.00880140  0.52877471  0.36604933    -0.11500
C514        C  0.02823679  0.52803635  0.33335916    -0.25600
C515        C  0.05358726  0.55605729  0.32885230     0.37100
C516        C  0.05495924  0.58530586  0.35313010    -0.27200
F517        F  0.99170651  0.55616545  0.42126452    -0.19300
H518        H  0.99159245  0.50676887  0.37311342     0.16400
F519        F  0.07825249  0.55537644  0.30234676    -0.23000
H520        H  0.07326449  0.60704690  0.34809807     0.18200
C521        C  0.05756832  0.42630387  0.37500032    -0.27100
C522        C  0.02912697  0.40202479  0.37656863     0.06500
C523        C  0.00096611  0.40521364  0.35171770     0.26200
C524        C  0.00029572  0.43315391  0.32700196    -0.11600
C525        C  0.02627267  0.46055921  0.32789520    -0.25500
C526        C  0.05634296  0.45521120  0.35090901     0.37000
C527        C  0.02665206  0.37585902  0.40626886     0.06600
F528        F  0.97311108  0.38214150  0.35239318    -0.19300
H529        H  0.97838847  0.43371634  0.30800053     0.16400
F530        F  0.08384128  0.47877406  0.35119143    -0.23000
H531        H  0.07983878  0.42395442  0.39371601     0.18200
C532        C  0.99970705  0.38010457  0.43189677     0.26200
C533        C  0.99748005  0.35657569  0.46068869    -0.11500
C534        C  0.02157331  0.32706472  0.46507191    -0.25600
C535        C  0.04845910  0.32275966  0.43813858     0.37100
C536        C  0.05089715  0.34710885  0.40954357    -0.27200
F537        F  0.97643407  0.40835918  0.43013744    -0.19300
H538        H  0.97824120  0.36378093  0.48103687     0.16400
F539        F  0.07351151  0.29618557  0.43922015    -0.23000
H540        H  0.07191912  0.34351497  0.38983509     0.18200
C541        C  0.07151767  0.52647173  0.21963720    -0.27100
C542        C  0.09661184  0.49838386  0.21352723     0.06500
C543        C  0.09323756  0.46748311  0.23500274     0.26200
C544        C  0.06882950  0.46649650  0.26363644    -0.11600
C545        C  0.04560959  0.49579724  0.27191166    -0.25500
C546        C  0.04564526  0.52462863  0.24720596     0.37000
C547        C  0.12688351  0.50152012  0.18631618     0.06600
F548        F  0.11334174  0.43759535  0.22831130    -0.19300
H549        H  0.06867285  0.44215177  0.27920988     0.16400
F550        F  0.02252373  0.55271306  0.25153764    -0.23000
H551        H  0.07252311  0.55081863  0.20408375     0.18200
C552        C  0.12353111  0.52113861  0.15401132     0.26200
C553        C  0.15272008  0.52430801  0.13020093    -0.11500
C554        C  0.18562417  0.50563449  0.13564405    -0.25600
C555        C  0.18918042  0.48725474  0.16892483     0.37100
C556        C  0.16070182  0.48575289  0.19347331    -0.27200
F557        F  0.09183649  0.53673922  0.14460309    -0.19300
H558        H  0.14910504  0.54124460  0.10693468     0.16400
F559        F  0.22099385  0.47278917  0.17965776    -0.23000
H560        H  0.16580734  0.47274045  0.21893198     0.18200
C561        C  0.48374775  0.37297033  0.14655351    -0.27100
C562        C  0.50938381  0.37884160  0.11955829     0.06500
C563        C  0.50635830  0.35824837  0.08764434     0.26200
C564        C  0.47804526  0.33424351  0.08266911    -0.11600
C565        C  0.45002241  0.33142951  0.10791744    -0.25500
C566        C  0.45403126  0.35092604  0.14047172     0.37000
C567        C  0.53710255  0.40798911  0.12364055     0.06600
F568        F  0.52935427  0.36251885  0.05992013    -0.19300
H569        H  0.47769433  0.31915445  0.05790216     0.16400
F570        F  0.42886357  0.34882849  0.16656406    -0.23000
H571        H  0.48602852  0.38597606  0.17251903     0.18200
C572        C  0.52946900  0.44006015  0.14276388     0.26200
C573        C  0.55341035  0.46864680  0.14266232    -0.11500
C574        C  0.58397156  0.46836083  0.12040752    -0.25600
C575        C  0.59379818  0.43488915  0.10484262     0.37100
C576        C  0.57087675  0.40524751  0.10681166    -0.27200
F577        F  0.49765049  0.44551879  0.15950537    -0.19300
H578        H  0.54585102  0.49243786  0.15771606     0.16400
F579        F  0.62508607  0.43091054  0.08672119    -0.23000
H580        H  0.57950850  0.38034491  0.09430877     0.18200
C581        C  0.35644129  0.39660521  0.08790049    -0.27100
C582        C  0.32659498  0.39118714  0.10981940     0.06500
C583        C  0.32484008  0.35855377  0.12863063     0.26200
C584        C  0.35287319  0.33283432  0.12639921    -0.11600
C585        C  0.38302127  0.33785681  0.10399070    -0.25500
C586        C  0.38408343  0.37104855  0.08518964     0.37000
C587        C  0.29850210  0.42038509  0.11330094     0.06600
F588        F  0.29659366  0.35189350  0.15030726    -0.19300
H589        H  0.35064913  0.30947747  0.14307918     0.16400
F590        F  0.41281574  0.38010587  0.06510485    -0.23000
H591        H  0.35863795  0.42114962  0.07267593     0.18200
C592        C  0.30850208  0.45654306  0.11761839     0.26200
C593        C  0.28273992  0.48425881  0.11740554    -0.11500
C594        C  0.24572684  0.47719533  0.11290775    -0.25600
C595        C  0.23573472  0.44065087  0.11110224     0.37100
C596        C  0.26167260  0.41284981  0.11109040    -0.27200
F597        F  0.34347911  0.46532882  0.12222794    -0.19300
H598        H  0.29257077  0.51129378  0.12015475     0.16400
F599        F  0.20051847  0.43194514  0.10937145    -0.23000
H600        H  0.25287281  0.38538768  0.10842675     0.18200
C601        C  0.52755966  0.15073800  0.41945224    -0.27100
C602        C  0.52931373  0.12559834  0.39134826     0.06500
C603        C  0.55758368  0.10047554  0.39083613     0.26200
C604        C  0.58229109  0.09899354  0.41934504    -0.11600
C605        C  0.57872408  0.12183373  0.44978484    -0.25500
C606        C  0.55212287  0.14936840  0.44805475     0.37000
C607        C  0.49858339  0.12226124  0.36617709     0.06600
F608        F  0.56020446  0.07611581  0.36367078    -0.19300
H609        H  0.60332485  0.07880702  0.41803784     0.16400
F610        F  0.54881928  0.17410004  0.47484871    -0.23000
H611        H  0.50601173  0.17048234  0.42008572     0.18200
C612        C  0.49524363  0.14316983  0.33514003     0.26200
C613        C  0.46430756  0.14101279  0.31338091    -0.11500
C614        C  0.43598243  0.11739245  0.32169861    -0.25600
C615        C  0.43970383  0.09761797  0.35428836     0.37100
C616        C  0.47060555  0.09972244  0.37546608    -0.27200
F617        F  0.52165946  0.16614644  0.32619900    -0.19300
H618        H  0.46278548  0.15869269  0.29060490     0.16400
F619        F  0.41239614  0.07806308  0.36763954    -0.23000
H620        H  0.47217791  0.08448686  0.40016197     0.18200
C621        C  0.29467308  0.09328469  0.43056316    -0.27100
C622        C  0.28748243  0.11998042  0.40525852     0.06500
C623        C  0.25729306  0.14216123  0.40995843     0.26200
C624        C  0.23441583  0.13728238  0.43939661    -0.11600
C625        C  0.24029127  0.10931752  0.46466152    -0.25500
C626        C  0.27208126  0.08827610  0.45997275     0.37000
C627        C  0.31269070  0.12483059  0.37496535     0.06600
F628        F  0.25040825  0.16919460  0.38654752    -0.19300
H629        H  0.21301858  0.15669506  0.44256592     0.16400
F630        F  0.28330744  0.06454923  0.48524413    -0.23000
H631        H  0.31860499  0.07670446  0.42801420     0.18200
C632        C  0.34366167  0.14547156  0.37927986     0.26200
C633        C  0.37046570  0.14453124  0.35300913    -0.11500
C634        C  0.36791596  0.12154832  0.32255282    -0.25600
C635        C  0.33455263  0.10457827  0.31654587     0.37100
C636        C  0.30787645  0.10586905  0.34279325    -0.27200
F637        F  0.34870978  0.16519735  0.40968790    -0.19300
H638        H  0.39433041  0.16039023  0.35770635     0.16400
F639        F  0.32814385  0.08570198  0.28591403    -0.23000
H640        H  0.28315233  0.09041455  0.33840836     0.18200
C641        C  0.42808220  0.16106654  0.20824367    -0.27100
C642        C  0.40325984  0.18966566  0.20547968     0.06500
C643        C  0.37635115  0.19223918  0.23170378     0.26200
C644        C  0.37515168  0.16782357  0.26050079    -0.11600
C645        C  0.40061223  0.13938666  0.26434065    -0.25500
C646        C  0.42652857  0.13607365  0.23658822     0.33400
C647        C  0.40704062  0.21814653  0.17702674     0.06600
F648        F  0.35198323  0.21954576  0.23046380    -0.19300
H649        H  0.35436919  0.17224180  0.28019400     0.16400
F650        F  0.45177757  0.10960656  0.23775389    -0.23000
H651        H  0.44916434  0.15828693  0.18848867     0.18200
C652        C  0.43734116  0.24013232  0.17656405     0.26200
C653        C  0.44025770  0.26818448  0.15162875    -0.11500
C654        C  0.41265940  0.27644988  0.12624555    -0.25600
C655        C  0.38346999  0.25217695  0.12521227     0.37100
C656        C  0.38040096  0.22424653  0.15066407    -0.27200
F657        F  0.46399707  0.23518980  0.20113927    -0.19300
H658        H  0.46476307  0.28324864  0.15288284     0.16400
F659        F  0.35720856  0.25593735  0.10002464    -0.23000
H660        H  0.35706061  0.20722196  0.14971018     0.18200
C661        C  0.55354026  0.88739944  0.41086143    -0.27100
C662        C  0.51690379  0.88988061  0.41910093     0.06500
C663        C  0.50714866  0.89457684  0.45523290     0.26200
C664        C  0.53341643  0.89654764  0.48230388    -0.11600
C665        C  0.57056682  0.89305157  0.47457862    -0.25500
C666        C  0.57996461  0.89010674  0.43786020     0.37000
C667        C  0.48916413  0.88984605  0.38983823     0.06600
F668        F  0.47215193  0.89891704  0.46432084    -0.19300
H669        H  0.52414311  0.90205213  0.50927527     0.16400
F670        F  0.61496259  0.88947409  0.42800563    -0.23000
H671        H  0.56181469  0.88406569  0.38316208     0.18200
C672        C  0.49147408  0.91363447  0.36085455     0.26200
C673        C  0.46471425  0.91474936  0.33425570    -0.11500
C674        C  0.43387490  0.89294187  0.33602842    -0.25600
C675        C  0.43300126  0.86743126  0.36425095     0.37100
C676        C  0.45995160  0.86641459  0.39086436    -0.27200
F677        F  0.51894936  0.93708383  0.35899089    -0.19300
H678        H  0.46819137  0.93348550  0.31250893     0.16400
F679        F  0.40610915  0.84331281  0.36633472    -0.23000
H680        H  0.45802025  0.84712860  0.41240572     0.18200
C681        C  0.79641144  0.59153838  0.35009487    -0.27100
C682        C  0.78374936  0.58706916  0.38523805     0.06500
C683        C  0.77594720  0.55206608  0.39662127     0.26200
C684        C  0.78223287  0.52239335  0.37397614    -0.11600
C685        C  0.79560809  0.52650669  0.33867635    -0.25500
C686        C  0.80279888  0.56204007  0.32745041     0.37000
C687        C  0.78259509  0.61829303  0.41087782     0.06600
F688        F  0.76361818  0.54613475  0.43030329    -0.19300
H689        H  0.77671837  0.49634505  0.38494188     0.16400
F690        F  0.81523021  0.56842392  0.29388647    -0.23000
H691        H  0.80185898  0.61813876  0.34008741     0.18200
C692        C  0.81169333  0.64191315  0.41310901     0.26200
C693        C  0.81344049  0.66790412  0.44028517    -0.11500
C694        C  0.78707813  0.67065525  0.46723768    -0.25600
C695        C  0.75593998  0.64952155  0.46253386     0.37100
C696        C  0.75401514  0.62352201  0.43496157    -0.27200
F697        F  0.84013343  0.63821175  0.39074710    -0.19300
H698        H  0.83676584  0.68456801  0.44092864     0.16400
F699        F  0.72872587  0.65159917  0.48652403    -0.23000
H700        H  0.73062293  0.60660919  0.43324643     0.18200
C701        C  0.74506568  0.78354344  0.47854143    -0.27100
C702        C  0.71455372  0.78361976  0.50059837     0.06500
C703        C  0.70872262  0.75322571  0.52179754     0.26200
C704        C  0.73331295  0.72426380  0.52198671    -0.11600
C705        C  0.76565319  0.72481043  0.50209144    -0.25500
C706        C  0.76978873  0.75441613  0.47863839     0.37000
C707        C  0.68714057  0.81364462  0.49950600     0.06600
F708        F  0.67884265  0.75139870  0.54232487    -0.19300
H709        H  0.72647893  0.70114508  0.53780881     0.16400
F710        F  0.79732574  0.75493475  0.45498517    -0.23000
H711        H  0.74938096  0.80579670  0.46055842     0.18200
C712        C  0.69159961  0.84594904  0.51885417     0.26200
C713        C  0.66407319  0.87244717  0.51967048    -0.11500
C714        C  0.63128600  0.86812771  0.50067811    -0.25600
C715        C  0.62683505  0.83446855  0.48260671     0.37100
C716        C  0.65444425  0.80844584  0.48161708    -0.27200
F717        F  0.72204175  0.85128447  0.53825607    -0.19300
H718        H  0.66818630  0.89618859  0.53605800     0.16400
F719        F  0.59509326  0.82494139  0.46756463    -0.23000
H720        H  0.64970922  0.78327659  0.46769008     0.18200
C721        C  0.35042435  0.61852803  0.91339613    -0.27100
C722        C  0.32333709  0.62245803  0.88764704     0.06500
C723        C  0.32589709  0.65057734  0.86280062     0.26200
C724        C  0.35411719  0.67547051  0.86524003    -0.11600
C725        C  0.38061940  0.67312982  0.89270383    -0.25500
C726        C  0.37893934  0.64241089  0.91535499     0.37000
C727        C  0.29376576  0.59578452  0.88675144     0.06600
F728        F  0.30093840  0.65418600  0.83632714    -0.19300
H729        H  0.35517579  0.69584214  0.84485814     0.16400
F730        F  0.40576665  0.63395622  0.93871873    -0.23000
H731        H  0.35002343  0.59601536  0.93168487     0.18200
C732        C  0.27153864  0.59158440  0.91674346     0.26200
C733        C  0.24708723  0.56331073  0.91821032    -0.11500
C734        C  0.24508991  0.53704900  0.89052032    -0.25600
C735        C  0.26642523  0.54276695  0.85960275     0.37100
C736        C  0.29017783  0.57173453  0.85782253    -0.27200
F737        F  0.27409757  0.61447274  0.94520232    -0.19300
H738        H  0.23043401  0.56202777  0.94173392     0.16400
F739        F  0.26485126  0.51980358  0.83116891    -0.23000
H740        H  0.30703028  0.57442031  0.83440388     0.18200
C741        C  0.55678425  0.91273905  0.59870533    -0.27100
C742        C  0.53567079  0.88195119  0.60160228     0.06500
C743        C  0.54151225  0.85362474  0.57723161     0.26200
C744        C  0.56514868  0.85769218  0.54835260    -0.11600
C745        C  0.58292045  0.89051463  0.54223145    -0.25500
C746        C  0.58080489  0.91671392  0.57007384     0.37000
C747        C  0.50369694  0.88229840  0.62551810     0.06600
F748        F  0.52187583  0.82327101  0.57934434    -0.19300
H749        H  0.56675627  0.83621937  0.52871736     0.16400
F750        F  0.60102909  0.94658536  0.56978086    -0.23000
H751        H  0.55352558  0.93452629  0.61791484     0.18200
C752        C  0.50039645  0.85960353  0.65531488     0.26200
C753        C  0.46915974  0.86074443  0.67660960    -0.11500
C754        C  0.44037369  0.88487387  0.66896992    -0.25600
C755        C  0.44348473  0.90539550  0.63698694     0.37100
C756        C  0.47475300  0.90463834  0.61649226    -0.27200
F757        F  0.52748393  0.83657022  0.66404218    -0.19300
H758        H  0.46795980  0.84233742  0.69879076     0.16400
F759        F  0.41577515  0.92575756  0.62445339    -0.23000
H760        H  0.47604446  0.92116224  0.59267868     0.18200
C761        C  0.34022383  0.85367027  0.62045857    -0.27100
C762        C  0.31297283  0.87995534  0.62033346     0.06500
C763        C  0.31474788  0.90800083  0.64563128     0.26200
C764        C  0.34326695  0.90998239  0.67022837    -0.11600
C765        C  0.37228472  0.88507482  0.66927427    -0.25500
C766        C  0.36949670  0.85607321  0.64441648     0.37000
C767        C  0.28558659  0.88087736  0.59092329     0.06600
F768        F  0.28946989  0.93442068  0.64571293    -0.19300
H769        H  0.34263919  0.93183186  0.68950093     0.16400
F770        F  0.39535698  0.83018716  0.64293292    -0.23000
H771        H  0.33955406  0.83194546  0.60095622     0.18200
C772        C  0.28930532  0.90554582  0.56320337     0.26200
C773        C  0.26528291  0.90593503  0.53433825    -0.11500
C774        C  0.23488066  0.88317677  0.53236411    -0.25600
C775        C  0.23161291  0.85791026  0.56068077     0.37100
C776        C  0.25679874  0.85685642  0.58930105    -0.27200
F777        F  0.31723477  0.92864540  0.56330996    -0.19300
H778        H  0.27197472  0.92343787  0.51244734     0.16400
F779        F  0.20537794  0.83308057  0.56065621    -0.23000
H780        H  0.25385283  0.83710366  0.61026404     0.18200
C781        C  0.37892907  0.81685655  0.76460932    -0.27100
C782        C  0.40721032  0.81814087  0.78960007     0.06500
C783        C  0.43434160  0.84348622  0.78380037     0.26200
C784        C  0.43348298  0.86584686  0.75335629    -0.11600
C785        C  0.40581212  0.86393420  0.72705422    -0.25500
C786        C  0.37778544  0.83919661  0.73427596     0.37000
C787        C  0.40916556  0.79133670  0.81986945     0.06600
F788        F  0.46160861  0.84712708  0.80786126    -0.19300
H789        H  0.45502170  0.88479659  0.75008291     0.16400
F790        F  0.34852649  0.83595744  0.71280573    -0.23000
H791        H  0.35762040  0.79769655  0.76811176     0.18200
C792        C  0.37915226  0.78306516  0.84108692     0.26200
C793        C  0.38077926  0.75505121  0.86643440    -0.11500
C794        C  0.41185095  0.73324366  0.87081187    -0.25600
C795        C  0.44296029  0.74465848  0.85203823     0.37100
C796        C  0.44114466  0.77235592  0.82664848    -0.27200
F797        F  0.34822461  0.80232608  0.83766663    -0.19300
H798        H  0.35716101  0.74975251  0.88225580     0.16400
F799        F  0.47599773  0.73056419  0.85869861    -0.23000
H800        H  0.46509713  0.77858236  0.81172552     0.18200
C801        C  0.48182427  0.63450623  0.85835708    -0.27100
C802        C  0.50472407  0.62757094  0.88769002     0.06500
C803        C  0.50025694  0.64804536  0.91928432     0.26200
C804        C  0.47223890  0.67321241  0.92198644    -0.11600
C805        C  0.44689008  0.67785730  0.89382923    -0.25500
C806        C  0.45309562  0.65872605  0.86142254     0.37000
C807        C  0.53100011  0.59710930  0.88606845     0.06600
F808        F  0.52150252  0.64225559  0.94851626    -0.19300
H809        H  0.47001718  0.68774127  0.94697681     0.16400
F810        F  0.43082757  0.66306482  0.83272541    -0.23000
H811        H  0.48546506  0.62022438  0.83316185     0.18200
C812        C  0.52062310  0.56369201  0.87186305     0.26200
C813        C  0.54432444  0.53448037  0.87200821    -0.11500
C814        C  0.57859201  0.53670856  0.88831249    -0.25600
C815        C  0.58969832  0.57104883  0.90044264     0.37100
C816        C  0.56611580  0.60063569  0.89949505    -0.27200
F817        F  0.48686101  0.55858852  0.85908981    -0.19300
H818        H  0.53514413  0.50991761  0.85957368     0.16400
F819        F  0.62338542  0.57598840  0.91347608    -0.23000
H820        H  0.57533529  0.62634535  0.90945509     0.18200
C821        C  0.49685953  0.36593984  0.84300773    -0.27100
C822        C  0.51914601  0.37039473  0.87324101     0.06500
C823        C  0.51428258  0.34778135  0.90276224     0.26200
C824        C  0.48602524  0.32350643  0.90323309    -0.11600
C825        C  0.45974542  0.32298995  0.87560900    -0.25500
C826        C  0.46756742  0.34241845  0.84397016     0.37000
C827        C  0.54189161  0.40283973  0.87719613     0.06600
F828        F  0.53489075  0.35141774  0.93270181    -0.19300
H829        H  0.48355220  0.30728452  0.92689585     0.16400
F830        F  0.44467339  0.34206304  0.81554367    -0.23000
H831        H  0.50011964  0.38304477  0.81985734     0.18200
C832        C  0.57137909  0.40982014  0.85509877     0.26200
C833        C  0.59134376  0.44150139  0.85983356    -0.11500
C834        C  0.58207994  0.46753675  0.88642080    -0.25600
C835        C  0.55099456  0.46021840  0.90724926     0.37100
C836        C  0.53216130  0.42836164  0.90307589    -0.27200
F837        F  0.58108312  0.38591514  0.82913858    -0.19300
H838        H  0.61368908  0.44541567  0.84202939     0.16400
F839        F  0.53630979  0.48497563  0.92983746    -0.23000
H840        H  0.50863501  0.42420084  0.91943877     0.18200
C841        C  0.81553563  0.59916079  0.65694983    -0.27100
C842        C  0.79212523  0.59548466  0.62745295     0.06500
C843        C  0.76954421  0.56565997  0.62602633     0.26200
C844        C  0.77266972  0.53847197  0.65155426    -0.11600
C845        C  0.79904998  0.53955607  0.67904178    -0.25500
C846        C  0.81872012  0.57180362  0.68274675     0.37000
C847        C  0.79288243  0.62074590  0.59659682     0.06600
F848        F  0.74532170  0.56207147  0.59885561    -0.19300
H849        H  0.75607659  0.51512043  0.64790301     0.16400
F850        F  0.84142374  0.57690498  0.71084203    -0.23000
H851        H  0.83245248  0.62253516  0.65922791     0.18200
C852        C  0.80031757  0.60756893  0.56199858     0.26200
C853        C  0.79915685  0.63032092  0.53235143    -0.11500
C854        C  0.79006020  0.66725384  0.53574791    -0.25600
C855        C  0.78561398  0.68073064  0.57125921     0.37100
C856        C  0.78618144  0.65761362  0.60105385    -0.27200
F857        F  0.80993343  0.57262868  0.55695952    -0.19300
H858        H  0.80670726  0.61874589  0.50671478     0.16400
F859        F  0.78115816  0.71643067  0.57741564    -0.23000
H860        H  0.78150338  0.66856440  0.62769327     0.18200
C861        C  0.82745724  0.44396585  0.61827125    -0.27100
C862        C  0.80724337  0.41304889  0.62406143     0.06500
C863        C  0.78893454  0.41053055  0.65704960     0.26200
C864        C  0.78952233  0.43910014  0.68226207    -0.11600
C865        C  0.80684445  0.47182556  0.67472163    -0.25500
C866        C  0.82632998  0.47307721  0.64197597     0.37000
C867        C  0.80435472  0.38532747  0.59441491     0.06600
F868        F  0.76965263  0.38093847  0.66475226    -0.19300
H869        H  0.77628957  0.43520544  0.70766217     0.16400
F870        F  0.84385367  0.50307553  0.63182206    -0.23000
H871        H  0.84379507  0.44628354  0.59446962     0.18200
C872        C  0.80257939  0.39629726  0.55825085     0.26200
C873        C  0.80246701  0.37127360  0.53020497    -0.11500
C874        C  0.80009689  0.33395586  0.53634134    -0.25600
C875        C  0.80251316  0.32284843  0.57271341     0.37100
C876        C  0.80471818  0.34811545  0.60116055    -0.27200
F877        F  0.80079425  0.43158954  0.54945433    -0.19300
H878        H  0.80524630  0.38198230  0.50352313     0.16400
F879        F  0.80376853  0.28738687  0.58070769    -0.23000
H880        H  0.80750094  0.33840122  0.62840559     0.18200
C881        C  0.75758990  0.51617570  0.79417250    -0.27100
C882        C  0.72278520  0.50475048  0.78590718     0.06500
C883        C  0.71530394  0.49524167  0.74998859     0.26200
C884        C  0.74252947  0.49470305  0.72389095    -0.11600
C885        C  0.77848130  0.50401243  0.73208785    -0.25500
C886        C  0.78434836  0.51775828  0.76759358     0.37000
C887        C  0.69376566  0.50553768  0.81394233     0.06600
F888        F  0.68145587  0.48639380  0.73996178    -0.19300
H889        H  0.73508963  0.48680270  0.69689176     0.16400
F890        F  0.81426431  0.53620744  0.77647513    -0.23000
H891        H  0.76351477  0.52611973  0.82098122     0.18200
C892        C  0.69590922  0.48465377  0.84531559     0.26200
C893        C  0.66742609  0.48443556  0.87022502    -0.11500
C894        C  0.63616748  0.50602486  0.86558836    -0.25600
C895        C  0.63471536  0.52710076  0.83362857     0.37100
C896        C  0.66293923  0.52672178  0.80875811    -0.27200
F897        F  0.72499535  0.46323048  0.85120197    -0.19300
H898        H  0.66950840  0.46639466  0.89282818     0.16400
F899        F  0.60553661  0.54721297  0.82467866    -0.23000
H900        H  0.66044865  0.54298956  0.78482026     0.18200
C901        C  0.94246081  0.33755933  0.28083989    -0.27100
C902        C  0.91340013  0.32418533  0.30073158     0.06500
C903        C  0.88066505  0.34362891  0.29965081     0.26200
C904        C  0.87860132  0.37704793  0.28303123    -0.11600
C905        C  0.90903513  0.39254887  0.26815206    -0.25500
C906        C  0.94047997  0.37171063  0.26502842     0.37000
C907        C  0.91951118  0.29630388  0.32914938     0.06600
F908        F  0.85194637  0.33333382  0.31901006    -0.19300
H909        H  0.85422599  0.39287401  0.28590019     0.16400
F910        F  0.97044524  0.38599329  0.25065164    -0.23000
H911        H  0.96785701  0.32317667  0.28051807     0.18200
C912        C  0.89216331  0.27279577  0.34002487     0.26200
C913        C  0.89250324  0.25847414  0.37493029    -0.11500
C914        C  0.92081494  0.26621199  0.39863209    -0.25600
C915        C  0.95088340  0.28400031  0.38540236     0.37100
C916        C  0.95030730  0.29877713  0.35103608    -0.27200
F917        F  0.86387844  0.26586056  0.31801092    -0.19300
H918        H  0.86925089  0.24426773  0.38438967     0.16400
F919        F  0.97921245  0.29070037  0.40734437    -0.23000
H920        H  0.97259979  0.31529968  0.34334803     0.18200
C921        C  0.93236064  0.73072917  0.34946650    -0.27100
C922        C  0.90320962  0.71154398  0.33478309     0.06500
C923        C  0.86950147  0.71556151  0.35154086     0.26200
C924        C  0.86680064  0.73319202  0.38474487    -0.11600
C925        C  0.89753873  0.74561585  0.40254500    -0.25500
C926        C  0.92981915  0.74693668  0.38351393     0.37000
C927        C  0.91031105  0.68043951  0.30989926     0.06600
F928        F  0.84025849  0.69781952  0.33927596    -0.19300
H929        H  0.84158647  0.73219068  0.39895319     0.16400
F930        F  0.96016362  0.75844024  0.40011978    -0.23000
H931        H  0.95842197  0.72917651  0.33682413     0.18200
C932        C  0.88508491  0.66844636  0.28400584     0.26200
C933        C  0.88736620  0.63327274  0.27003385    -0.11500
C934        C  0.91529235  0.61021023  0.28095666    -0.25600
C935        C  0.94286803  0.62378611  0.30277793     0.37100
C936        C  0.94035355  0.65834511  0.31707395    -0.27200
F937        F  0.85732162  0.68989031  0.27358552    -0.19300
H938        H  0.86591902  0.62325524  0.25307583     0.16400
F939        F  0.97064392  0.60225411  0.31317232    -0.23000
H940        H  0.96052373  0.66634002  0.33649192     0.18200
C941        C  0.94393055  0.65797689  0.71378430    -0.27100
C942        C  0.91139384  0.67736783  0.71604205     0.06500
C943        C  0.88445603  0.66399195  0.73889536     0.26200
C944        C  0.88837754  0.62980755  0.75446121    -0.11600
C945        C  0.91937618  0.60904676  0.74808938    -0.25500
C946        C  0.94801184  0.62458613  0.72990886     0.37000
C947        C  0.90389795  0.70578832  0.68848332     0.06600
F948        F  0.85329696  0.68249851  0.74393301    -0.19300
H949        H  0.86580806  0.61817303  0.76818910     0.16400
F950        F  0.97811770  0.60498524  0.72292802    -0.23000
H951        H  0.96510409  0.66632905  0.69608343     0.18200
C952        C  0.93197026  0.72645517  0.67409644     0.26200
C953        C  0.92925502  0.74015565  0.63910291    -0.11500
C954        C  0.89786279  0.73529280  0.61893230    -0.25600
C955        C  0.86778097  0.72119916  0.63596120     0.37100
C956        C  0.87082424  0.70594091  0.67004810    -0.27200
F957        F  0.96332957  0.73036412  0.69233245    -0.19300
H958        H  0.95275748  0.75137484  0.62665645     0.16400
F959        F  0.83638822  0.71868549  0.61793898    -0.23000
H960        H  0.84827422  0.69093260  0.67982938     0.18200
C961        C  0.93956008  0.28926894  0.66764371    -0.27100
C962        C  0.90663860  0.29493552  0.68526592     0.06500
C963        C  0.87588218  0.27841214  0.67016966     0.26200
C964        C  0.87712394  0.26350522  0.63536683    -0.11600
C965        C  0.90944325  0.26240242  0.61637225    -0.25500
C966        C  0.94092625  0.27217312  0.63425159     0.37000
C967        C  0.90373013  0.32400980  0.71344841     0.06600
F968        F  0.84406436  0.27895903  0.68768278    -0.19300
H969        H  0.85243059  0.25550416  0.62227794     0.16400
F970        F  0.97272798  0.26931254  0.61736055    -0.23000
H971        H  0.96408200  0.30116703  0.67734624     0.18200
C972        C  0.93363125  0.33463224  0.73464425     0.26200
C973        C  0.93493052  0.36932813  0.74961781    -0.11500
C974        C  0.90569720  0.39289649  0.74569379    -0.25600
C975        C  0.87390088  0.38018101  0.73033701     0.37100
C976        C  0.87314790  0.34661049  0.71364222    -0.27200
F977        F  0.96268197  0.31274306  0.73875641    -0.19300
H978        H  0.95978399  0.37874699  0.76140388     0.16400
F979        F  0.84501622  0.40240163  0.72704347    -0.23000
H980        H  0.84965871  0.34056281  0.69767860     0.18200
C981        C  0.17649583  0.97462535  0.33159831    -0.27100
C982        C  0.20103834  0.00063701  0.32006255     0.06500
C983        C  0.20749544  0.03037644  0.34271683     0.26200
C984        C  0.19334138  0.03187781  0.37720461    -0.11600
C985        C  0.17247426  0.00389376  0.39019886    -0.25500
C986        C  0.16224115  0.97621417  0.36656305     0.37000
C987        C  0.22591675  0.99369133  0.28934387     0.06600
F988        F  0.23134159  0.05578890  0.33358151    -0.19300
H989        H  0.20195639  0.05318351  0.39522326     0.16400
F990        F  0.14177660  0.94890091  0.37840226    -0.23000
H991        H  0.17060102  0.95166521  0.31463700     0.18200
C992        C  0.24657059  0.96177533  0.28871093     0.26200
C993        C  0.28018531  0.96121402  0.27224193    -0.11500
C994        C  0.29351171  0.99210325  0.25586891    -0.25600
C995        C  0.27048078  0.02172397  0.25108083     0.37100
C996        C  0.23662665  0.02226996  0.26733316    -0.27200
F997        F  0.23709661  0.93299747  0.30852990    -0.19300
H998        H  0.29770248  0.93818035  0.27644539     0.16400
F999        F  0.28263842  0.05198592  0.23539294    -0.23000
H1000       H  0.22079393  0.04680991  0.26646693     0.18200
C1001       C  0.59704337  0.97218514  0.33193712    -0.27100
C1002       C  0.60531714  0.00105787  0.30964651     0.06500
C1003       C  0.63038514  0.02649969  0.32230972     0.26200
C1004       C  0.64357616  0.02476971  0.35795029    -0.11600
C1005       C  0.63155675  0.99788757  0.38113874    -0.25500
C1006       C  0.60934762  0.97108619  0.36719360     0.37000
C1007       C  0.57996019  0.00853489  0.27932571     0.06600
F1008       F  0.63988202  0.05437244  0.30124298    -0.19300
H1009       H  0.66032362  0.04611633  0.36825084     0.16400
F1010       F  0.59597918  0.94596549  0.38910358    -0.23000
H1011       H  0.57744205  0.95251274  0.32367171     0.18200
C1012       C  0.56604509  0.97995789  0.25847108     0.26200
C1013       C  0.53058644  0.98155540  0.24560705    -0.11500
C1014       C  0.50916615  0.01188999  0.25272035    -0.25600
C1015       C  0.52520878  0.04255907  0.26768160     0.37100
C1016       C  0.56053926  0.04103665  0.28033811    -0.27200
F1017       F  0.58476816  0.94864478  0.25524034    -0.19300
H1018       H  0.51869064  0.95760694  0.23419332     0.16400
F1019       F  0.50516493  0.07237246  0.27473655    -0.23000
H1020       H  0.57049633  0.06369559  0.29562377     0.18200
C1021       C  0.56976390  0.97108322  0.70085813    -0.27100
C1022       C  0.58505523  0.00546074  0.70007916     0.06500
C1023       C  0.57056313  0.03229592  0.72301733     0.26200
C1024       C  0.53850144  0.02626783  0.74156901    -0.11600
C1025       C  0.52073589  0.99346884  0.73769166    -0.25500
C1026       C  0.53820776  0.96503941  0.71977130     0.37000
C1027       C  0.60980148  0.01442019  0.66988732     0.06600
F1028       F  0.58541159  0.06535845  0.72490029    -0.19300
H1029       H  0.52536391  0.04863291  0.75506890     0.16400
F1030       F  0.52180249  0.93284429  0.71595295    -0.23000
H1031       H  0.57962629  0.94973863  0.68355850     0.18200
C1032       C  0.63478790  0.98900140  0.65630457     0.26200
C1033       C  0.64828309  0.99225812  0.62131729    -0.11500
C1034       C  0.63716596  0.02084846  0.59949464    -0.25600
C1035       C  0.61636848  0.04863145  0.61471080     0.37100
C1036       C  0.60297004  0.04550170  0.64953869    -0.27200
F1037       F  0.64393221  0.95952133  0.67566460    -0.19300
H1038       H  0.66426603  0.97051735  0.61007273     0.16400
F1039       F  0.60600733  0.07714231  0.59450415    -0.23000
H1040       H  0.58432105  0.06586852  0.65891997     0.18200
C1041       C  0.21072952  0.96366660  0.65846364    -0.27100
C1042       C  0.20767787  0.99558914  0.67870255     0.06500
C1043       C  0.18505091  0.02318533  0.66528523     0.26200
C1044       C  0.17067111  0.02083139  0.63028106    -0.11600
C1045       C  0.17841696  0.99087443  0.60848072    -0.25500
C1046       C  0.19677552  0.96150296  0.62361075     0.37000
C1047       C  0.23497204  0.00268088  0.70760104     0.06600
F1048       F  0.17928097  0.05360746  0.68481280    -0.19300
H1049       H  0.15656705  0.04379132  0.61910501     0.16400
F1050       F  0.20449645  0.93204562  0.60325871    -0.23000
H1051       H  0.22724530  0.94159177  0.66783430     0.18200
C1052       C  0.24820019  0.97492769  0.73000140     0.26200
C1053       C  0.28263189  0.97721829  0.74543156    -0.11500
C1054       C  0.30372847  0.00751763  0.73952979    -0.25600
C1055       C  0.28825790  0.03729528  0.72222760     0.37100
C1056       C  0.25436463  0.03484071  0.70630929    -0.27200
F1057       F  0.22945152  0.94420953  0.73403860    -0.19300
H1058       H  0.29419872  0.95383926  0.75844641     0.16400
F1059       F  0.30814217  0.06694484  0.71612163    -0.23000
H1060       H  0.24556112  0.05670395  0.68928087     0.18200
C1061       C  0.25347608  0.30757881  0.96493695    -0.27100
C1062       C  0.23351806  0.29611713  0.99439352     0.06500
C1063       C  0.24854039  0.26982440  0.01728593     0.26200
C1064       C  0.28439170  0.25842065  0.01286283    -0.11600
C1065       C  0.30554243  0.27372261  0.98603899    -0.25500
C1066       C  0.28924388  0.29713440  0.96128025     0.37000
C1067       C  0.20458639  0.32075487  0.00684898     0.06600
F1068       F  0.22990908  0.25837949  0.04616444    -0.19300
H1069       H  0.29653490  0.24071074  0.03255809     0.16400
F1070       F  0.30916150  0.31312769  0.93588065    -0.23000
H1071       H  0.24293239  0.32837394  0.94743493     0.18200
C1072       C  0.21296400  0.34360333  0.03575830     0.26200
C1073       C  0.19646539  0.37709613  0.03843564    -0.11500
C1074       C  0.17148220  0.38881448  0.01266467    -0.25600
C1075       C  0.15857679  0.36393425  0.98733294     0.37100
C1076       C  0.17556250  0.33007277  0.98407262    -0.27200
F1077       F  0.24192029  0.33674081  0.05709168    -0.19300
H1078       H  0.20763074  0.39611805  0.05732817     0.16400
F1079       F  0.13334162  0.37399436  0.96286391    -0.23000
H1080       H  0.16876894  0.31286950  0.96148291     0.18200
C1081       C  0.19866063  0.65549791  0.03120811    -0.27100
C1082       C  0.19907162  0.67378723  0.99822887     0.06500
C1083       C  0.17882213  0.65951127  0.96928669     0.26200
C1084       C  0.16342551  0.62535400  0.97191092    -0.11600
C1085       C  0.16709267  0.60553441  0.00365667    -0.25500
C1086       C  0.18237876  0.62207219  0.03402383     0.37000
C1087       C  0.22648944  0.70235041  0.99267662     0.06600
F1088       F  0.17649333  0.67711095  0.93751872    -0.19300
H1089       H  0.15205926  0.61295527  0.94805303     0.16400
F1090       F  0.18577970  0.60369121  0.06526094    -0.23000
H1091       H  0.21412076  0.66503522  0.05400373     0.18200
C1092       C  0.23610384  0.72654729  0.02051208     0.26200
C1093       C  0.26920652  0.74423418  0.01977075    -0.11500
C1094       C  0.29279783  0.73860713  0.99103700    -0.25600
C1095       C  0.28114991  0.71836928  0.96121800     0.37100
C1096       C  0.24849113  0.70039258  0.96210153    -0.27200
F1097       F  0.21490033  0.73088265  0.04977752    -0.19300
H1098       H  0.27783806  0.75934985  0.04320176     0.16400
F1099       F  0.30343164  0.71240844  0.93298544    -0.23000
H1100       H  0.24248781  0.68199094  0.94028946     0.18200
C1101       C  0.62304348  0.67247378  0.99127289    -0.27100
C1102       C  0.59532205  0.68193752  0.01533504     0.06500
C1103       C  0.58347847  0.65594946  0.03974840     0.26200
C1104       C  0.59699785  0.62106399  0.03821550    -0.11600
C1105       C  0.62269007  0.61098571  0.01270494    -0.25500
C1106       C  0.63691751  0.63718308  0.99011894     0.37000
C1107       C  0.57335616  0.71522029  0.01029223     0.06600
F1108       F  0.55575767  0.66286378  0.06229941    -0.19300
H1109       H  0.58528871  0.60098773  0.05529227     0.16400
F1110       F  0.66148158  0.62796733  0.96482922    -0.23000
H1111       H  0.63234453  0.69181429  0.97194565     0.18200
C1112       C  0.55972698  0.73446668  0.04010502     0.26200
C1113       C  0.52753483  0.75399906  0.03688610    -0.11500
C1114       C  0.50937293  0.75548956  0.00378320    -0.25600
C1115       C  0.52682747  0.74239106  0.97291345     0.37100
C1116       C  0.55840727  0.72200824  0.97620197    -0.27200
F1117       F  0.57489455  0.73054405  0.07315447    -0.19300
H1118       H  0.51450964  0.76375298  0.06106956     0.16400
F1119       F  0.51021402  0.74415278  0.94038121    -0.23000
H1120       H  0.56844655  0.70795601  0.95266301     0.18200
C1121       C  0.57843208  0.27613594  0.96136728    -0.27100
C1122       C  0.59312026  0.29352453  0.99191830     0.06500
C1123       C  0.57509984  0.28949846  0.02498204     0.26200
C1124       C  0.54112697  0.27394811  0.02592688    -0.11600
C1125       C  0.52412171  0.26237898  0.99428875    -0.25500
C1126       C  0.54396518  0.26128148  0.96234529     0.37000
C1127       C  0.61967784  0.32332626  0.98736607     0.06600
F1128       F  0.58734711  0.30509126  0.05567025    -0.19300
H1129       H  0.52629897  0.27496026  0.05086519     0.16400
F1130       F  0.52836276  0.25015395  0.93118818    -0.23000
H1131       H  0.59185852  0.27749850  0.93569333     0.18200
C1132       C  0.64317390  0.33440227  0.01527834     0.26200
C1133       C  0.65471476  0.37026930  0.01724195    -0.11500
C1134       C  0.64441922  0.39471382  0.99046902    -0.25600
C1135       C  0.62702536  0.38177122  0.95955401     0.37100
C1136       C  0.61524043  0.34641851  0.95783102    -0.27200
F1137       F  0.65320860  0.31132317  0.04164854    -0.19300
H1138       H  0.66895180  0.37952511  0.04096840     0.16400
F1139       F  0.61774350  0.40456975  0.93267954    -0.23000
H1140       H  0.59925937  0.33870092  0.93478874     0.18200
loop_ 
_geom_bond_atom_site_label_1 
_geom_bond_atom_site_label_2 
_geom_bond_distance 
_geom_bond_site_symmetry_2 
_ccdc_geom_bond_type 
In1           O3   2.231       .  S
In1           O4   2.250       .  S
In1          O12   2.267       .  S
In1           O6   2.174   1_554  S
In1           O8   2.157       .  S
In1           O9   2.282   1_554  S
In1          O10   2.251       .  S
In1          O13   2.184   1_554  S
C2            O8   1.269       .  A
C2           O10   1.281       .  A
C2         C1105   1.471       .  S
O3           C11   1.274       .  A
O4           C11   1.273       .  A
C5           O12   1.280   1_556  A
C5            O6   1.267       .  A
C5         C1134   1.475       .  S
C7            O9   1.275       .  A
C7           O13   1.271       .  A
C7          C158   1.551       .  S
C11         C176   1.548       .  S
In14         O16   2.174       .  S
In14         O17   2.291       .  S
In14         O25   2.269       .  S
In14         O19   2.158       .  S
In14         O21   2.168   1_554  S
In14         O22   2.192   1_554  S
In14         O23   2.281       .  S
In14         O26   2.268   1_554  S
C15          O21   1.261       .  A
C15          O23   1.280   1_556  A
C15        C1094   1.474       .  S
O16          C24   1.263       .  A
O17          C24   1.273       .  A
C18          O25   1.280       .  A
C18          O19   1.263       .  A
C18        C1114   1.467       .  S
C20          O22   1.268       .  A
C20          O26   1.273       .  A
C20         C160   1.542       .  S
C24         C174   1.547       .  S
In27         O29   2.220   1_556  S
In27         O30   2.280   1_556  S
In27         O38   2.266       .  S
In27         O32   2.175       .  S
In27         O34   2.181       .  S
In27         O35   2.275       .  S
In27         O36   2.276       .  S
In27         O39   2.226       .  S
C28          O34   1.265       .  A
C28          O36   1.279       .  A
C28        C1125   1.477       .  S
O29          C37   1.273       .  A
O30          C37   1.273       .  A
C31          O38   1.279       .  A
C31          O32   1.267       .  A
C31        C1065   1.478       .  S
C33          O35   1.273       .  A
C33          O39   1.275       .  A
C33         C177   1.550       .  S
C37         C164   1.553       .  S
In40         O42   2.221   1_556  S
In40         O43   2.265   1_556  S
In40         O51   2.279       .  S
In40         O45   2.165   1_556  S
In40         O47   2.152   1_556  S
In40         O48   2.219       .  S
In40         O49   2.288   1_556  S
In40         O52   2.279       .  S
C41          O47   1.262       .  A
C41          O49   1.278       .  A
C41        C1074   1.475       .  S
O42          C50   1.272       .  A
O43          C50   1.271       .  A
C44          O51   1.279   1_554  A
C44          O45   1.262       .  A
C44        C1085   1.472       .  S
C46          O48   1.268       .  A
C46          O52   1.272       .  A
C46         C169   1.556       .  S
C50         C166   1.551       .  S
In53         O55   2.209       .  S
In53         O56   2.271       .  S
In53         O64   2.273   1_565  S
In53         O58   2.162       .  S
In53         O60   2.165   1_565  S
In53         O61   2.210   1_565  S
In53         O62   2.272       .  S
In53         O65   2.282   1_565  S
C54          O60   1.263       .  A
C54          O62   1.278   1_545  A
C54        C1054   1.471       .  S
O55          C63   1.270       .  A
O56          C63   1.273       .  A
C57          O64   1.278   1_565  A
C57          O58   1.263       .  A
C57        C1025   1.471       .  S
C59          O61   1.269       .  A
C59          O65   1.271       .  A
C59         C178   1.551       .  S
C63         C159   1.549       .  S
In66         O68   2.248   1_545  S
In66         O69   2.297   1_545  S
In66         O77   2.271       .  S
In66         O71   2.169       .  S
In66         O73   2.174       .  S
In66         O74   2.294       .  S
In66         O75   2.261       .  S
In66         O78   2.184       .  S
C67          O73   1.267       .  A
C67          O75   1.281       .  A
C67        C1034   1.475       .  S
O68          C76   1.275       .  A
O69          C76   1.275       .  A
C70          O77   1.280       .  A
C70          O71   1.268       .  A
C70        C1005   1.479   1_545  S
C72          O74   1.275       .  A
C72          O78   1.273       .  A
C72         C180   1.553       .  S
C76         C162   1.559       .  S
In79         O81   2.210       .  S
In79         O82   2.278       .  S
In79         O90   2.265       .  S
In79         O84   2.181       .  S
In79         O86   2.174       .  S
In79         O87   2.232   1_545  S
In79         O88   2.269   1_545  S
In79         O91   2.260   1_545  S
C80          O86   1.263   1_565  A
C80          O88   1.277       .  A
C80         C994   1.470       .  S
O81          C89   1.271       .  A
O82          C89   1.271       .  A
C83          O90   1.277       .  A
C83          O84   1.265       .  A
C83        C1014   1.472       .  S
C85          O87   1.272       .  A
C85          O91   1.270       .  A
C85         C173   1.555       .  S
C89         C163   1.550       .  S
In92         O94   2.227   1_565  S
In92         O95   2.276   1_565  S
In92        O103   2.264       .  S
In92         O97   2.156       .  S
In92         O99   2.178       .  S
In92        O100   2.187       .  S
In92        O101   2.268       .  S
In92        O104   2.290       .  S
C93          O99   1.266       .  A
C93         O101   1.279       .  A
C93        C1045   1.476       .  S
O94         C102   1.271       .  A
O95         C102   1.274       .  A
C96         O103   1.280       .  A
C96          O97   1.266       .  A
C96         C985   1.470   1_565  S
C98         O100   1.271       .  A
C98         O104   1.274       .  A
C98         C171   1.554       .  S
C102        C168   1.552       .  S
In105       O107   2.223       .  S
In105       O108   2.258       .  S
In105       O116   2.257       .  S
In105       O110   2.159       .  S
In105       O112   2.158       .  S
In105       O113   2.277       .  S
In105       O114   2.276       .  S
In105       O117   2.202       .  S
C106        O112   1.263       .  A
C106        O114   1.279       .  A
C106        C945   1.471       .  S
O107        C115   1.271       .  A
O108        C115   1.268       .  A
C109        O116   1.279       .  A
C109        O110   1.266       .  A
C109        C974   1.466       .  S
C111        O113   1.272       .  A
C111        O117   1.270       .  A
C111        C170   1.546   1_655  S
C115        C157   1.549       .  S
In118       O120   2.274       .  S
In118       O121   2.287       .  S
In118       O129   2.272       .  S
In118       O123   2.163       .  S
In118       O125   2.190       .  S
In118       O126   2.240       .  S
In118       O127   2.268       .  S
In118       O130   2.282       .  S
C119        O125   1.265       .  A
C119        O127   1.275       .  A
C119        C954   1.474       .  S
O120        C128   1.275       .  A
O121        C128   1.269       .  A
C122        O129   1.277       .  A
C122        O123   1.263       .  A
C122        C925   1.469       .  S
C124        O126   1.277       .  A
C124        O130   1.271       .  A
C124        C161   1.552       .  S
C128        C172   1.559   1_655  S
In131       O133   2.212       .  S
In131       O134   2.286       .  S
In131       O142   2.264       .  S
In131       O136   2.167       .  S
In131       O138   2.161       .  S
In131       O139   2.280       .  S
In131       O140   2.261       .  S
In131       O143   2.233       .  S
C132        O138   1.266       .  A
C132        O140   1.280       .  A
C132        C934   1.472       .  S
O133        C141   1.274       .  A
O134        C141   1.274       .  A
C135        O142   1.279       .  A
C135        O136   1.267       .  A
C135        C905   1.472       .  S
C137        O139   1.274       .  A
C137        O143   1.274       .  A
C137        C175   1.553       .  S
C141        C165   1.555   1_655  S
In144       O146   2.264       .  S
In144       O147   2.234       .  S
In144       O155   2.271       .  S
In144       O149   2.175       .  S
In144       O151   2.178       .  S
In144       O152   2.273       .  S
In144       O153   2.260       .  S
In144       O156   2.225       .  S
C145        O151   1.267       .  A
C145        O153   1.278       .  A
C145        C965   1.471       .  S
O146        C154   1.271       .  A
O147        C154   1.275       .  A
C148        O155   1.279       .  A
C148        O149   1.266       .  A
C148        C914   1.475       .  S
C150        O152   1.272       .  A
C150        O156   1.273       .  A
C150        C167   1.561   1_655  S
C154        C179   1.546       .  S
C157        C845   1.560       .  S
C157        C865   1.573       .  S
C157        C885   1.582       .  S
C158        C814   1.556       .  S
C158        C834   1.576       .  S
C158        C894   1.581       .  S
C159        C754   1.575       .  S
C159        C765   1.566       .  S
C159        C785   1.583       .  S
C160        C725   1.575       .  S
C160        C794   1.580       .  S
C160        C805   1.556       .  S
C161        C694   1.562       .  S
C161        C705   1.577       .  S
C161        C854   1.562       .  S
C162        C665   1.567       .  S
C162        C714   1.580       .  S
C162        C745   1.567       .  S
C163        C614   1.572       .  S
C163        C634   1.563       .  S
C163        C645   1.582       .  S
C164        C565   1.568       .  S
C164        C585   1.576       .  S
C164        C654   1.591       .  S
C165        C514   1.576       .  S
C165        C525   1.565       .  S
C165        C545   1.578       .  S
C166        C494   1.575       .  S
C166        C554   1.582       .  S
C166        C594   1.566       .  S
C167        C445   1.560       .  S
C167        C474   1.573       .  S
C167        C534   1.572       .  S
C168        C425   1.563       .  S
C168        C465   1.572       .  S
C168        C625   1.574       .  S
C169        C385   1.573       .  S
C169        C405   1.576       .  S
C169        C734   1.569       .  S
C170        C365   1.573       .  S
C170        C414   1.582       .  S
C170        C454   1.559       .  S
C171        C334   1.562       .  S
C171        C345   1.584       .  S
C171        C774   1.581       .  S
C172        C354   1.581       .  S
C172        C374   1.569       .  S
C172        C505   1.571       .  S
C173        C305   1.572       .  S
C173        C325   1.571       .  S
C173        C674   1.569       .  S
C174        C285   1.583       .  S
C174        C314   1.572       .  S
C174        C485   1.561       .  S
C175        C245   1.574       .  S
C175        C265   1.573       .  S
C175        C685   1.565       .  S
C176        C274   1.569       .  S
C176        C294   1.578       .  S
C176        C574   1.565       .  S
C177        C234   1.578       .  S
C177        C394   1.568       .  S
C177        C825   1.564       .  S
C178        C205   1.556       .  S
C178        C225   1.581       .  S
C178        C434   1.571       .  S
C179        C185   1.569       .  S
C179        C254   1.562       .  S
C179        C874   1.569       .  S
C180        C194   1.585       .  S
C180        C214   1.569       .  S
C180        C605   1.559       .  S
C181        C182   1.405       .  A
C181        C186   1.413       .  A
C181        H191   1.083       .  S
C182        C187   1.504       .  S
C182        C183   1.403       .  A
C183        C184   1.408       .  A
C183        F188   1.357       .  S
C184        C185   1.418       .  A
C184        H189   1.080       .  S
C185        C186   1.424       .  A
C186        F190   1.356       .  S
C187        C192   1.406       .  A
C187        C196   1.400       .  A
C192        C193   1.414       .  A
C192        F197   1.357       .  S
C193        C194   1.421       .  A
C193        H198   1.083       .  S
C194        C195   1.430       .  A
C195        C196   1.408       .  A
C195        F199   1.354       .  S
C196        H200   1.084       .  S
C201        C202   1.400       .  A
C201        C206   1.402       .  A
C201        H211   1.082       .  S
C202        C207   1.476       .  S
C202        C203   1.397       .  A
C203        C204   1.396       .  A
C203        F208   1.357       .  S
C204        C205   1.418       .  A
C204        H209   1.082       .  S
C205        C206   1.420       .  A
C206        F210   1.354       .  S
C207        C212   1.402       .  A
C207        C216   1.392       .  A
C212        C213   1.405       .  A
C212        F217   1.357       .  S
C213        C214   1.418       .  A
C213        H218   1.077       .  S
C214        C215   1.428       .  A
C215        C216   1.393       .  A
C215        F219   1.358       .  S
C216        H220   1.084       .  S
C221        C222   1.399       .  A
C221        C226   1.406       .  A
C221        H231   1.083       .  S
C222        C227   1.504       .  S
C222        C223   1.407       .  A
C223        C224   1.413       .  A
C223        F228   1.357       .  S
C224        C225   1.419       .  A
C224        H229   1.083       .  S
C225        C226   1.429       .  A
C226        F230   1.355       .  S
C227        C232   1.406       .  A
C227        C236   1.401       .  A
C232        C233   1.412       .  A
C232        F237   1.357       .  S
C233        C234   1.418       .  A
C233        H238   1.082       .  S
C234        C235   1.427       .  A
C235        C236   1.408       .  A
C235        F239   1.355       .  S
C236        H240   1.083       .  S
C241        C242   1.408       .  A
C241        C246   1.409       .  A
C241        H251   1.082       .  S
C242        C247   1.505       .  S
C242        C243   1.406       .  A
C243        C244   1.395       .  A
C243        F248   1.358       .  S
C244        C245   1.417       .  A
C244        H249   1.071       .  S
C245        C246   1.421       .  A
C246        F250   1.356       .  S
C247        C252   1.410       .  A
C247        C256   1.407       .  A
C252        C253   1.405       .  A
C252        F257   1.357       .  S
C253        C254   1.415       .  A
C253        H258   1.082       .  S
C254        C255   1.416       .  A
C255        C256   1.400       .  A
C255        F259   1.354       .  S
C256        H260   1.081       .  S
C261        C262   1.413       .  A
C261        C266   1.415       .  A
C261        H271   1.082       .  S
C262        C267   1.513       .  S
C262        C263   1.405       .  A
C263        C264   1.397       .  A
C263        F268   1.358       .  S
C264        C265   1.420       .  A
C264        H269   1.077       .  S
C265        C266   1.417       .  A
C266        F270   1.357       .  S
C267        C272   1.407       .  A
C267        C276   1.408       .  A
C272        C273   1.409       .  A
C272        F277   1.357       .  S
C273        C274   1.421       .  A
C273        H278   1.075       .  S
C274        C275   1.418       .  A
C275        C276   1.404       .  A
C275        F279   1.356       .  S
C276        H280   1.082       .  S
C281        C282   1.399       .  A
C281        C286   1.390       .  A
C281        H291   1.083       .  S
C282        C287   1.514       .  S
C282        C283   1.413       .  A
C283        C284   1.422       .  A
C283        F288   1.357       .  S
C284        C285   1.424       .  A
C284        H289   1.081       .  S
C285        C286   1.423       .  A
C286        F290   1.353       .  S
C287        C292   1.408       .  A
C287        C296   1.412       .  A
C292        C293   1.391       .  A
C292        F297   1.358       .  S
C293        C294   1.412       .  A
C293        H298   1.082       .  S
C294        C295   1.425       .  A
C295        C296   1.423       .  A
C295        F299   1.356       .  S
C296        H300   1.083       .  S
C301        C302   1.402       .  A
C301        C306   1.408       .  A
C301        H311   1.083       .  S
C302        C307   1.498       .  S
C302        C303   1.403       .  A
C303        C304   1.407       .  A
C303        F308   1.357       .  S
C304        C305   1.419       .  A
C304        H309   1.079       .  S
C305        C306   1.424       .  A
C306        F310   1.358       .  S
C307        C312   1.402       .  A
C307        C316   1.405       .  A
C312        C313   1.405       .  A
C312        F317   1.358       .  S
C313        C314   1.421       .  A
C313        H318   1.080       .  S
C314        C315   1.420       .  A
C315        C316   1.411       .  A
C315        F319   1.357       .  S
C316        H320   1.083       .  S
C321        C322   1.397       .  A
C321        C326   1.406       .  A
C321        H331   1.083       .  S
C322        C327   1.481       .  S
C322        C323   1.397       .  A
C323        C324   1.396       .  A
C323        F328   1.358       .  S
C324        C325   1.417       .  A
C324        H329   1.080       .  S
C325        C326   1.431       .  A
C326        F330   1.354       .  S
C327        C332   1.400       .  A
C327        C336   1.401       .  A
C332        C333   1.396       .  A
C332        F337   1.358       .  S
C333        C334   1.415       .  A
C333        H338   1.081       .  S
C334        C335   1.420       .  A
C335        C336   1.405       .  A
C335        F339   1.357       .  S
C336        H340   1.083       .  S
C341        C342   1.408       .  A
C341        C346   1.418       .  A
C341        H351   1.083       .  S
C342        C347   1.511       .  S
C342        C343   1.404       .  A
C343        C344   1.409       .  A
C343        F348   1.358       .  S
C344        C345   1.424       .  A
C344        H349   1.080       .  S
C345        C346   1.423       .  A
C346        F350   1.356       .  S
C347        C352   1.408       .  A
C347        C356   1.403       .  A
C352        C353   1.416       .  A
C352        F357   1.357       .  S
C353        C354   1.419       .  A
C353        H358   1.083       .  S
C354        C355   1.428       .  A
C355        C356   1.411       .  A
C355        F359   1.355       .  S
C356        H360   1.083       .  S
C361        C362   1.397       .  A
C361        C366   1.392       .  A
C361        H371   1.084   1_455  S
C362        C367   1.496       .  S
C362        C363   1.407       .  A
C363        C364   1.413       .  A
C363        F368   1.357       .  S
C364        C365   1.419       .  A
C364        H369   1.078       .  S
C365        C366   1.426       .  A
C366        F370   1.357   1_455  S
C367        C372   1.403       .  A
C367        C376   1.406       .  A
C372        C373   1.394       .  A
C372        F377   1.359       .  S
C373        C374   1.419       .  A
C373        H378   1.078       .  S
C374        C375   1.420       .  A
C375        C376   1.411       .  A
C375        F379   1.357       .  S
C376        H380   1.083       .  S
C381        C382   1.405       .  A
C381        C386   1.411       .  A
C381        H391   1.083       .  S
C382        C387   1.500       .  S
C382        C383   1.403       .  A
C383        C384   1.396       .  A
C383        F388   1.358       .  S
C384        C385   1.418       .  A
C384        H389   1.079       .  S
C385        C386   1.425       .  A
C386        F390   1.354       .  S
C387        C392   1.405       .  A
C387        C396   1.402       .  A
C392        C393   1.409       .  A
C392        F397   1.357       .  S
C393        C394   1.417       .  A
C393        H398   1.082       .  S
C394        C395   1.425       .  A
C395        C396   1.399       .  A
C395        F399   1.356       .  S
C396        H400   1.083       .  S
C401        C402   1.409       .  A
C401        C406   1.410       .  A
C401        H411   1.083       .  S
C402        C407   1.513       .  S
C402        C403   1.407       .  A
C403        C404   1.408       .  A
C403        F408   1.357       .  S
C404        C405   1.420       .  A
C404        H409   1.079       .  S
C405        C406   1.420       .  A
C406        F410   1.358       .  S
C407        C412   1.405       .  A
C407        C416   1.411       .  A
C412        C413   1.403       .  A
C412        F417   1.358       .  S
C413        C414   1.423       .  A
C413        H418   1.079       .  S
C414        C415   1.419       .  A
C415        C416   1.414       .  A
C415        F419   1.357       .  S
C416        H420   1.083       .  S
C421        C422   1.400       .  A
C421        C426   1.399       .  A
C421        H431   1.084       .  S
C422        C427   1.482       .  S
C422        C423   1.402       .  A
C423        C424   1.402       .  A
C423        F428   1.357       .  S
C424        C425   1.418       .  A
C424        H429   1.082       .  S
C425        C426   1.419       .  A
C426        F430   1.353       .  S
C427        C432   1.402       .  A
C427        C436   1.393       .  A
C432        C433   1.408       .  A
C432        F437   1.357       .  S
C433        C434   1.420       .  A
C433        H438   1.079       .  S
C434        C435   1.427       .  A
C435        C436   1.393       .  A
C435        F439   1.356       .  S
C436        H440   1.084       .  S
C441        C442   1.406       .  A
C441        C446   1.406       .  A
C441        H451   1.083       .  S
C442        C447   1.493       .  S
C442        C443   1.406       .  A
C443        C444   1.394       .  A
C443        F448   1.358       .  S
C444        C445   1.415       .  A
C444        H449   1.079       .  S
C445        C446   1.412       .  A
C446        F450   1.354       .  S
C447        C452   1.407       .  A
C447        C456   1.404       .  A
C452        C453   1.403       .  A
C452        F457   1.358   1_455  S
C453        C454   1.416       .  A
C453        H458   1.080   1_455  S
C454        C455   1.416       .  A
C455        C456   1.397       .  A
C455        F459   1.358       .  S
C456        H460   1.083       .  S
C461        C462   1.410       .  A
C461        C466   1.412       .  A
C461        H471   1.082       .  S
C462        C467   1.513       .  S
C462        C463   1.409       .  A
C463        C464   1.401       .  A
C463        F468   1.357       .  S
C464        C465   1.416       .  A
C464        H469   1.080       .  S
C465        C466   1.421       .  A
C466        F470   1.358       .  S
C467        C472   1.409       .  A
C467        C476   1.409       .  A
C472        C473   1.400       .  A
C472        F477   1.357       .  S
C473        C474   1.417       .  A
C473        H478   1.081       .  S
C474        C475   1.423       .  A
C475        C476   1.413       .  A
C475        F479   1.356       .  S
C476        H480   1.082       .  S
C481        C482   1.400       .  A
C481        C486   1.402       .  A
C481        H491   1.084       .  S
C482        C487   1.483       .  S
C482        C483   1.402       .  A
C483        C484   1.399       .  A
C483        F488   1.357       .  S
C484        C485   1.415       .  A
C484        H489   1.081       .  S
C485        C486   1.423       .  A
C486        F490   1.357       .  S
C487        C492   1.394       .  A
C487        C496   1.400       .  A
C492        C493   1.395       .  A
C492        F497   1.359       .  S
C493        C494   1.425       .  A
C493        H498   1.073       .  S
C494        C495   1.424       .  A
C495        C496   1.407       .  A
C495        F499   1.354       .  S
C496        H500   1.084       .  S
C501        C502   1.400   1_655  A
C501        C506   1.400       .  A
C501        H511   1.083       .  S
C502        C507   1.491       .  S
C502        C503   1.403       .  A
C503        C504   1.408       .  A
C503        F508   1.357       .  S
C504        C505   1.421       .  A
C504        H509   1.082       .  S
C505        C506   1.419   1_455  A
C506        F510   1.349       .  S
C507        C512   1.399       .  A
C507        C516   1.402       .  A
C512        C513   1.396       .  A
C512        F517   1.358   1_455  S
C513        C514   1.419       .  A
C513        H518   1.082   1_455  S
C514        C515   1.428       .  A
C515        C516   1.411       .  A
C515        F519   1.352       .  S
C516        H520   1.083       .  S
C521        C522   1.403       .  A
C521        C526   1.406       .  A
C521        H531   1.083       .  S
C522        C527   1.482       .  S
C522        C523   1.399       .  A
C523        C524   1.394       .  A
C523        F528   1.356   1_455  S
C524        C525   1.415       .  A
C524        H529   1.077   1_455  S
C525        C526   1.419       .  A
C526        F530   1.357       .  S
C527        C532   1.396   1_455  A
C527        C536   1.399       .  A
C532        C533   1.392       .  A
C532        F537   1.358       .  S
C533        C534   1.421   1_655  A
C533        H538   1.077       .  S
C534        C535   1.429       .  A
C535        C536   1.407       .  A
C535        F539   1.354       .  S
C536        H540   1.083       .  S
C541        C542   1.414       .  A
C541        C546   1.415       .  A
C541        H551   1.080       .  S
C542        C547   1.527       .  S
C542        C543   1.413       .  A
C543        C544   1.406       .  A
C543        F548   1.358       .  S
C544        C545   1.419       .  A
C544        H549   1.080       .  S
C545        C546   1.418       .  A
C546        F550   1.357       .  S
C547        C552   1.415       .  A
C547        C556   1.410       .  A
C552        C553   1.414       .  A
C552        F557   1.356       .  S
C553        C554   1.418       .  A
C553        H558   1.081       .  S
C554        C555   1.424       .  A
C555        C556   1.407       .  A
C555        F559   1.356       .  S
C556        H560   1.082       .  S
C561        C562   1.411       .  A
C561        C566   1.403       .  A
C561        H571   1.080       .  S
C562        C567   1.514       .  S
C562        C563   1.413       .  A
C563        C564   1.402       .  A
C563        F568   1.357       .  S
C564        C565   1.415       .  A
C564        H569   1.076       .  S
C565        C566   1.415       .  A
C566        F570   1.358       .  S
C567        C572   1.413       .  A
C567        C576   1.412       .  A
C572        C573   1.397       .  A
C572        F577   1.356       .  S
C573        C574   1.413       .  A
C573        H578   1.080       .  S
C574        C575   1.416       .  A
C575        C576   1.407       .  A
C575        F579   1.357       .  S
C576        H580   1.081       .  S
C581        C582   1.401       .  A
C581        C586   1.399       .  A
C581        H591   1.083       .  S
C582        C587   1.507       .  S
C582        C583   1.409       .  A
C583        C584   1.412       .  A
C583        F588   1.357       .  S
C584        C585   1.419       .  A
C584        H589   1.077       .  S
C585        C586   1.426       .  A
C586        F590   1.357       .  S
C587        C592   1.409       .  A
C587        C596   1.406       .  A
C592        C593   1.402       .  A
C592        F597   1.358       .  S
C593        C594   1.416       .  A
C593        H598   1.080       .  S
C594        C595   1.416       .  A
C595        C596   1.409       .  A
C595        F599   1.357       .  S
C596        H600   1.081       .  S
C601        C602   1.400       .  A
C601        C606   1.400       .  A
C601        H611   1.083       .  S
C602        C607   1.481       .  S
C602        C603   1.402       .  A
C603        C604   1.401       .  A
C603        F608   1.356       .  S
C604        C605   1.417       .  A
C604        H609   1.081       .  S
C605        C606   1.420       .  A
C606        F610   1.357       .  S
C607        C612   1.401       .  A
C607        C616   1.393       .  A
C612        C613   1.407       .  A
C612        F617   1.357       .  S
C613        C614   1.419       .  A
C613        H618   1.078       .  S
C614        C615   1.428       .  A
C615        C616   1.394       .  A
C615        F619   1.357       .  S
C616        H620   1.084       .  S
C621        C622   1.397       .  A
C621        C626   1.400       .  A
C621        H631   1.084       .  S
C622        C627   1.485       .  S
C622        C623   1.400       .  A
C623        C624   1.406       .  A
C623        F628   1.357       .  S
C624        C625   1.422       .  A
C624        H629   1.077       .  S
C625        C626   1.425       .  A
C626        F630   1.356       .  S
C627        C632   1.402       .  A
C627        C636   1.396       .  A
C632        C633   1.402       .  A
C632        F637   1.357       .  S
C633        C634   1.418       .  A
C633        H638   1.086       .  S
C634        C635   1.417       .  A
C635        C636   1.398       .  A
C635        F639   1.356       .  S
C636        H640   1.103       .  S
C641        C642   1.407       .  A
C641        C646   1.413       .  A
C641        H651   1.083       .  S
C642        C647   1.512       .  S
C642        C643   1.406       .  A
C643        C644   1.411       .  A
C643        F648   1.357       .  S
C644        C645   1.422       .  A
C644        H649   1.080       .  S
C645        C646   1.422       .  A
C646        F650   1.356       .  S
C647        C652   1.403       .  A
C647        C656   1.409       .  A
C652        C653   1.408       .  A
C652        F657   1.358       .  S
C653        C654   1.425       .  A
C653        H658   1.078       .  S
C654        C655   1.423       .  A
C655        C656   1.418       .  A
C655        F659   1.357       .  S
C656        H660   1.083       .  S
C661        C662   1.404       .  A
C661        C666   1.406       .  A
C661        H671   1.083       .  S
C662        C667   1.496       .  S
C662        C663   1.404       .  A
C663        C664   1.402       .  A
C663        F668   1.358       .  S
C664        C665   1.421       .  A
C664        H669   1.081       .  S
C665        C666   1.415       .  A
C666        F670   1.358       .  S
C667        C672   1.404       .  A
C667        C676   1.404       .  A
C672        C673   1.401       .  A
C672        F677   1.356       .  S
C673        C674   1.418       .  A
C673        H678   1.082       .  S
C674        C675   1.422       .  A
C675        C676   1.406       .  A
C675        F679   1.357       .  S
C676        H680   1.083       .  S
C681        C682   1.404       .  A
C681        C686   1.399       .  A
C681        H691   1.083       .  S
C682        C687   1.499       .  S
C682        C683   1.408       .  A
C683        C684   1.403       .  A
C683        F688   1.358       .  S
C684        C685   1.417       .  A
C684        H689   1.078       .  S
C685        C686   1.420       .  A
C686        F690   1.358       .  S
C687        C692   1.406       .  A
C687        C696   1.407       .  A
C692        C693   1.396       .  A
C692        F697   1.357       .  S
C693        C694   1.411       .  A
C693        H698   1.074       .  S
C694        C695   1.419       .  A
C695        C696   1.407       .  A
C695        F699   1.357       .  S
C696        H700   1.083       .  S
C701        C702   1.407       .  A
C701        C706   1.416       .  A
C701        H711   1.083       .  S
C702        C707   1.507       .  S
C702        C703   1.404       .  A
C703        C704   1.408       .  A
C703        F708   1.357       .  S
C704        C705   1.419       .  A
C704        H709   1.080       .  S
C705        C706   1.421       .  A
C706        F710   1.357       .  S
C707        C712   1.408       .  A
C707        C716   1.400       .  A
C712        C713   1.416       .  A
C712        F717   1.357       .  S
C713        C714   1.418       .  A
C713        H718   1.082       .  S
C714        C715   1.429       .  A
C715        C716   1.407       .  A
C715        F719   1.356       .  S
C716        H720   1.083       .  S
C721        C722   1.394       .  A
C721        C726   1.395       .  A
C721        H731   1.084       .  S
C722        C727   1.493       .  S
C722        C723   1.406       .  A
C723        C724   1.412       .  A
C723        F728   1.357       .  S
C724        C725   1.419       .  A
C724        H729   1.078       .  S
C725        C726   1.428       .  A
C726        F730   1.357       .  S
C727        C732   1.405       .  A
C727        C736   1.402       .  A
C732        C733   1.402       .  A
C732        F737   1.358       .  S
C733        C734   1.417       .  A
C733        H738   1.078       .  S
C734        C735   1.421       .  A
C735        C736   1.406       .  A
C735        F739   1.357       .  S
C736        H740   1.083       .  S
C741        C742   1.404       .  A
C741        C746   1.406       .  A
C741        H751   1.084       .  S
C742        C747   1.492       .  S
C742        C743   1.402       .  A
C743        C744   1.404       .  A
C743        F748   1.357       .  S
C744        C745   1.418       .  A
C744        H749   1.081       .  S
C745        C746   1.420       .  A
C746        F750   1.351       .  S
C747        C752   1.406       .  A
C747        C756   1.396       .  A
C752        C753   1.413       .  A
C752        F757   1.357       .  S
C753        C754   1.421       .  A
C753        H758   1.078       .  S
C754        C755   1.425       .  A
C755        C756   1.397       .  A
C755        F759   1.357       .  S
C756        H760   1.084       .  S
C761        C762   1.403       .  A
C761        C766   1.408       .  A
C761        H771   1.083       .  S
C762        C767   1.492       .  S
C762        C763   1.403       .  A
C763        C764   1.400       .  A
C763        F768   1.355       .  S
C764        C765   1.418       .  A
C764        H769   1.081       .  S
C765        C766   1.421       .  A
C766        F770   1.357       .  S
C767        C772   1.395       .  A
C767        C776   1.406       .  A
C772        C773   1.394       .  A
C772        F777   1.358       .  S
C773        C774   1.424       .  A
C773        H778   1.079       .  S
C774        C775   1.424       .  A
C775        C776   1.415       .  A
C775        F779   1.354       .  S
C776        H780   1.083       .  S
C781        C782   1.402       .  A
C781        C786   1.407       .  A
C781        H791   1.083       .  S
C782        C787   1.511       .  S
C782        C783   1.410       .  A
C783        C784   1.410       .  A
C783        F788   1.357       .  S
C784        C785   1.419       .  A
C784        H789   1.083       .  S
C785        C786   1.429       .  A
C786        F790   1.354       .  S
C787        C792   1.412       .  A
C787        C796   1.402       .  A
C792        C793   1.412       .  A
C792        F797   1.357       .  S
C793        C794   1.417       .  A
C793        H798   1.083       .  S
C794        C795   1.428       .  A
C795        C796   1.404       .  A
C795        F799   1.356       .  S
C796        H800   1.083       .  S
C801        C802   1.405       .  A
C801        C806   1.397       .  A
C801        H811   1.083       .  S
C802        C807   1.492       .  S
C802        C803   1.406       .  A
C803        C804   1.399       .  A
C803        F808   1.358       .  S
C804        C805   1.416       .  A
C804        H809   1.075       .  S
C805        C806   1.415       .  A
C806        F810   1.357       .  S
C807        C812   1.406       .  A
C807        C816   1.405       .  A
C812        C813   1.394       .  A
C812        F817   1.358       .  S
C813        C814   1.414       .  A
C813        H818   1.080       .  S
C814        C815   1.419       .  A
C815        C816   1.403       .  A
C815        F819   1.357       .  S
C816        H820   1.083       .  S
C821        C822   1.404       .  A
C821        C826   1.409       .  A
C821        H831   1.083       .  S
C822        C827   1.490       .  S
C822        C823   1.403       .  A
C823        C824   1.396       .  A
C823        F828   1.356       .  S
C824        C825   1.415       .  A
C824        H829   1.076       .  S
C825        C826   1.419       .  A
C826        F830   1.355       .  S
C827        C832   1.405       .  A
C827        C836   1.395       .  A
C832        C833   1.412       .  A
C832        F837   1.357       .  S
C833        C834   1.421       .  A
C833        H838   1.079       .  S
C834        C835   1.428       .  A
C835        C836   1.393       .  A
C835        F839   1.356       .  S
C836        H840   1.084       .  S
C841        C842   1.404       .  A
C841        C846   1.408       .  A
C841        H851   1.083       .  S
C842        C847   1.490       .  S
C842        C843   1.402       .  A
C843        C844   1.397       .  A
C843        F848   1.358       .  S
C844        C845   1.415       .  A
C844        H849   1.080       .  S
C845        C846   1.420       .  A
C846        F850   1.354       .  S
C847        C852   1.402       .  A
C847        C856   1.402       .  A
C852        C853   1.396       .  A
C852        F857   1.358       .  S
C853        C854   1.418       .  A
C853        H858   1.081       .  S
C854        C855   1.419       .  A
C855        C856   1.408       .  A
C855        F859   1.356       .  S
C856        H860   1.083       .  S
C861        C862   1.402       .  A
C861        C866   1.393       .  A
C861        H871   1.082       .  S
C862        C867   1.509       .  S
C862        C863   1.412       .  A
C863        C864   1.413       .  A
C863        F868   1.356       .  S
C864        C865   1.417       .  A
C864        H869   1.080       .  S
C865        C866   1.423       .  A
C866        F870   1.358       .  S
C867        C872   1.409       .  A
C867        C876   1.410       .  A
C872        C873   1.394       .  A
C872        F877   1.358       .  S
C873        C874   1.414       .  A
C873        H878   1.078       .  S
C874        C875   1.419       .  A
C875        C876   1.413       .  A
C875        F879   1.356       .  S
C876        H880   1.082       .  S
C881        C882   1.402       .  A
C881        C886   1.411       .  A
C881        H891   1.083       .  S
C882        C887   1.507       .  S
C882        C883   1.406       .  A
C883        C884   1.409       .  A
C883        F888   1.357       .  S
C884        C885   1.419       .  A
C884        H889   1.080       .  S
C885        C886   1.429       .  A
C886        F890   1.355       .  S
C887        C892   1.408       .  A
C887        C896   1.400       .  A
C892        C893   1.414       .  A
C892        F897   1.357       .  S
C893        C894   1.419       .  A
C893        H898   1.082       .  S
C894        C895   1.430       .  A
C895        C896   1.405       .  A
C895        F899   1.355       .  S
C896        H900   1.083       .  S
C901        C902   1.413       .  A
C901        C906   1.406       .  A
C901        H911   1.083       .  S
C902        C907   1.502       .  S
C902        C903   1.413       .  A
C903        C904   1.395       .  A
C903        F908   1.355       .  S
C904        C905   1.398       .  A
C904        H909   1.083       .  S
C905        C906   1.404       .  A
C906        F910   1.357       .  S
C907        C912   1.415       .  A
C907        C916   1.407       .  A
C912        C913   1.407       .  A
C912        F917   1.357       .  S
C913        C914   1.402       .  A
C913        H918   1.083       .  S
C914        C915   1.402       .  A
C915        C916   1.395       .  A
C915        F919   1.355       .  S
C916        H920   1.081       .  S
C921        C922   1.412       .  A
C921        C926   1.402       .  A
C921        H931   1.083       .  S
C922        C927   1.500       .  S
C922        C923   1.412       .  A
C923        C924   1.398       .  A
C923        F928   1.356       .  S
C924        C925   1.401       .  A
C924        H929   1.083       .  S
C925        C926   1.402       .  A
C926        F930   1.358       .  S
C927        C932   1.415       .  A
C927        C936   1.408       .  A
C932        C933   1.408       .  A
C932        F937   1.357       .  S
C933        C934   1.402       .  A
C933        H938   1.083       .  S
C934        C935   1.402       .  A
C935        C936   1.392       .  A
C935        F939   1.359       .  S
C936        H940   1.082       .  S
C941        C942   1.408       .  A
C941        C946   1.391       .  A
C941        H951   1.081       .  S
C942        C947   1.502       .  S
C942        C943   1.417       .  A
C943        C944   1.408       .  A
C943        F948   1.358       .  S
C944        C945   1.404       .  A
C944        H949   1.083       .  S
C945        C946   1.400       .  A
C946        F950   1.358       .  S
C947        C952   1.416       .  A
C947        C956   1.407       .  A
C952        C953   1.404       .  A
C952        F957   1.357       .  S
C953        C954   1.399       .  A
C953        H958   1.083       .  S
C954        C955   1.401       .  A
C955        C956   1.396       .  A
C955        F959   1.349       .  S
C956        H960   1.081       .  S
C961        C962   1.408       .  A
C961        C966   1.392       .  A
C961        H971   1.079       .  S
C962        C967   1.505       .  S
C962        C963   1.418       .  A
C963        C964   1.405       .  A
C963        F968   1.357       .  S
C964        C965   1.401       .  A
C964        H969   1.082       .  S
C965        C966   1.396       .  A
C966        F970   1.348       .  S
C967        C972   1.419       .  A
C967        C976   1.410       .  A
C972        C973   1.405       .  A
C972        F977   1.357       .  S
C973        C974   1.399       .  A
C973        H978   1.083       .  S
C974        C975   1.399       .  A
C975        C976   1.393       .  A
C975        F979   1.356       .  S
C976        H980   1.080       .  S
C981        C982   1.411   1_565  A
C981        C986   1.409       .  A
C981        H991   1.083       .  S
C982        C987   1.495   1_545  S
C982        C983   1.409       .  A
C983        C984   1.391       .  A
C983        F988   1.353       .  S
C984        C985   1.399       .  A
C984        H989   1.085       .  S
C985        C986   1.404   1_545  A
C986        F990   1.356       .  S
C987        C992   1.409       .  A
C987        C996   1.410   1_565  A
C992        C993   1.398       .  A
C992        F997   1.357       .  S
C993        C994   1.403       .  A
C993        H998   1.084       .  S
C994        C995   1.402   1_565  A
C995        C996   1.403       .  A
C995        F999   1.357       .  S
C996       H1000   1.083       .  S
C1001      C1002   1.401   1_565  A
C1001      C1006   1.387       .  A
C1001      H1011   1.082       .  S
C1002      C1007   1.493       .  S
C1002      C1003   1.415       .  A
C1003      C1004   1.412       .  A
C1003      F1008   1.357       .  S
C1004      C1005   1.405   1_545  A
C1004      H1009   1.083       .  S
C1005      C1006   1.399       .  A
C1006      F1010   1.347       .  S
C1007      C1012   1.414   1_545  A
C1007      C1016   1.404       .  A
C1012      C1013   1.404       .  A
C1012      F1017   1.358       .  S
C1013      C1014   1.401   1_565  A
C1013      H1018   1.083       .  S
C1014      C1015   1.405       .  A
C1015      C1016   1.397       .  A
C1015      F1019   1.357       .  S
C1016      H1020   1.082       .  S
C1021      C1022   1.408   1_565  A
C1021      C1026   1.396       .  A
C1021      H1031   1.082       .  S
C1022      C1027   1.500       .  S
C1022      C1023   1.414       .  A
C1023      C1024   1.405       .  A
C1023      F1028   1.357       .  S
C1024      C1025   1.402   1_545  A
C1024      H1029   1.083       .  S
C1025      C1026   1.403       .  A
C1026      F1030   1.358       .  S
C1027      C1032   1.414   1_545  A
C1027      C1036   1.408       .  A
C1032      C1033   1.405       .  A
C1032      F1037   1.357       .  S
C1033      C1034   1.401   1_565  A
C1033      H1038   1.083       .  S
C1034      C1035   1.404       .  A
C1035      C1036   1.397       .  A
C1035      F1039   1.357       .  S
C1036      H1040   1.081       .  S
C1041      C1042   1.407       .  A
C1041      C1046   1.396       .  A
C1041      H1051   1.080       .  S
C1042      C1047   1.499   1_565  S
C1042      C1043   1.414   1_565  A
C1043      C1044   1.407       .  A
C1043      F1048   1.357       .  S
C1044      C1045   1.403   1_545  A
C1044      H1049   1.083       .  S
C1045      C1046   1.403       .  A
C1046      F1050   1.358       .  S
C1047      C1052   1.415   1_545  A
C1047      C1056   1.408       .  A
C1052      C1053   1.406       .  A
C1052      F1057   1.357       .  S
C1053      C1054   1.402   1_565  A
C1053      H1058   1.083       .  S
C1054      C1055   1.403       .  A
C1055      C1056   1.396       .  A
C1055      F1059   1.358       .  S
C1056      H1060   1.082       .  S
C1061      C1062   1.400       .  A
C1061      C1066   1.392       .  A
C1061      H1071   1.084       .  S
C1062      C1067   1.483   1_556  S
C1062      C1063   1.411   1_556  A
C1063      C1064   1.408       .  A
C1063      F1068   1.357       .  S
C1064      C1065   1.404   1_554  A
C1064      H1069   1.083       .  S
C1065      C1066   1.404       .  A
C1066      F1070   1.351       .  S
C1067      C1072   1.402       .  A
C1067      C1076   1.412   1_554  A
C1072      C1073   1.388       .  A
C1072      F1077   1.359       .  S
C1073      C1074   1.401       .  A
C1073      H1078   1.079       .  S
C1074      C1075   1.403   1_554  A
C1075      C1076   1.410       .  A
C1075      F1079   1.356       .  S
C1076      H1080   1.083       .  S
C1081      C1082   1.408   1_554  A
C1081      C1086   1.396       .  A
C1081      H1091   1.082       .  S
C1082      C1087   1.500       .  S
C1082      C1083   1.415       .  A
C1083      C1084   1.406       .  A
C1083      F1088   1.357       .  S
C1084      C1085   1.402   1_556  A
C1084      H1089   1.083       .  S
C1085      C1086   1.403       .  A
C1086      F1090   1.357       .  S
C1087      C1092   1.415   1_556  A
C1087      C1096   1.407       .  A
C1092      C1093   1.406       .  A
C1092      F1097   1.357       .  S
C1093      C1094   1.402   1_554  A
C1093      H1098   1.083       .  S
C1094      C1095   1.406       .  A
C1095      C1096   1.397       .  A
C1095      F1099   1.359       .  S
C1096      H1100   1.082       .  S
C1101      C1102   1.412   1_556  A
C1101      C1106   1.408       .  A
C1101      H1111   1.083       .  S
C1102      C1107   1.491       .  S
C1102      C1103   1.409       .  A
C1103      C1104   1.389       .  A
C1103      F1108   1.357       .  S
C1104      C1105   1.399       .  A
C1104      H1109   1.082       .  S
C1105      C1106   1.403   1_554  A
C1106      F1110   1.357       .  S
C1107      C1112   1.410       .  A
C1107      C1116   1.405   1_554  A
C1112      C1113   1.402       .  A
C1112      F1117   1.358       .  S
C1113      C1114   1.402       .  A
C1113      H1118   1.083       .  S
C1114      C1115   1.405   1_554  A
C1115      C1116   1.399       .  A
C1115      F1119   1.357       .  S
C1116      H1120   1.083       .  S
C1121      C1122   1.414       .  A
C1121      C1126   1.406       .  A
C1121      H1131   1.083       .  S
C1122      C1127   1.507       .  S
C1122      C1123   1.415   1_556  A
C1123      C1124   1.400       .  A
C1123      F1128   1.356       .  S
C1124      C1125   1.400   1_554  A
C1124      H1129   1.083       .  S
C1125      C1126   1.404       .  A
C1126      F1130   1.357       .  S
C1127      C1132   1.416   1_556  A
C1127      C1136   1.408       .  A
C1132      C1133   1.410       .  A
C1132      F1137   1.357       .  S
C1133      C1134   1.403   1_554  A
C1133      H1138   1.083       .  S
C1134      C1135   1.401       .  A
C1135      C1136   1.394       .  A
C1135      F1139   1.357       .  S
C1136      H1140   1.080       .  S
