geometry optimzed in LAMMPS
_audit_creation_date              2020-11-30 
_audit_creation_method            'lammps2cif' 
_symmetry_space_group_name_H-M    'P1' 
_symmetry_Int_Tables_number       1 
_symmetry_cell_setting            triclinic 
loop_ 
_symmetry_equiv_pos_as_xyz 
  x,y,z 
_cell_length_a                    44.67326698 
_cell_length_b                    44.398047800447124 
_cell_length_c                    44.39350381148546 
_cell_angle_alpha                 90.25973944125107 
_cell_angle_beta                  90.10381977838743 
_cell_angle_gamma                 90.73554365056441 
loop_ 
_atom_site_label 
_atom_site_type_symbol 
_atom_site_fract_x 
_atom_site_fract_y 
_atom_site_fract_z 
_atom_site_charge 
O1          O  0.52840292  0.04580995  0.82892204    -0.86400
O2          O  0.52298215  0.04990643  0.65889080    -0.86500
O3          O  0.58584724  0.03810545  0.73917265    -0.88200
O4          O  0.51526715  0.10732477  0.74758366    -0.86900
O5          O  0.46383481  0.10637541  0.74785934    -0.86500
O6          O  0.58525553  0.98636366  0.74089556    -0.87900
O7          O  0.54828674  0.07683199  0.69543676    -0.86400
O8          O  0.55305506  0.07288756  0.79229450    -0.86000
Zr9        Zr  0.53395896  0.05561998  0.74398848     2.84300
O10         O  0.49096525  0.05452684  0.71409180    -1.07900
O11         O  0.53420794  0.01254328  0.77446995    -1.08700
C12         C  0.54781494  0.06561679  0.81989467     1.06800
C13         C  0.54111940  0.07112414  0.66777226     1.06700
C14         C  0.59871568  0.01210540  0.73827999     1.09700
C15         C  0.48942812  0.12011581  0.74914594     1.07500
H16         H  0.55107899  0.01276439  0.70044107     0.33000
O17         O  0.53378102  0.01242981  0.71349396    -1.28900
H18         H  0.49169909  0.07227387  0.78819004     0.32700
O19         O  0.49164423  0.05466893  0.77526811    -1.30600
O20         O  0.45851428  0.97546205  0.65728303    -0.86300
O21         O  0.45304341  0.98129656  0.83075814    -0.87800
O22         O  0.55096519  0.95223361  0.69518392    -0.86400
O23         O  0.43374192  0.07356762  0.69616774    -0.86500
O24         O  0.43170341  0.07101638  0.79404199    -0.86200
O25         O  0.55200729  0.95196462  0.79212163    -0.86000
O26         O  0.46608086  0.91619867  0.74938030    -0.86400
O27         O  0.39714582  0.98352462  0.74242967    -0.85800
O28         O  0.51744756  0.91666721  0.74720726    -0.86900
O29         O  0.39694192  0.03517050  0.74609165    -0.86000
O30         O  0.52608168  0.97752986  0.65793019    -0.86400
O31         O  0.52688573  0.97711808  0.82951119    -0.86200
O32         O  0.45725599  0.04560811  0.83078803    -0.85800
O33         O  0.45909887  0.04811786  0.65916311    -0.86200
O34         O  0.43483186  0.94804890  0.69424638    -0.86500
O35         O  0.42810331  0.95449466  0.79384521    -0.87900
Zr36       Zr  0.49121158  0.01165181  0.68315593     2.83100
Zr37       Zr  0.49178865  0.01167936  0.80555725     2.83500
Zr38       Zr  0.53349663  0.96937765  0.74397374     2.84100
Zr39       Zr  0.44864262  0.05370404  0.74493519     2.83400
Zr40       Zr  0.44880864  0.96779846  0.74421212     2.84200
O41         O  0.44920609  0.01073891  0.77482000    -1.08400
O42         O  0.49108971  0.96824788  0.71321483    -1.07900
C43         C  0.44085790  0.95410965  0.66634021     1.06700
C44         C  0.43243738  0.96261101  0.82164388     1.09300
C45         C  0.54544985  0.95825836  0.66736029     1.06900
C46         C  0.44083934  0.06841494  0.66845328     1.07300
C47         C  0.43758576  0.06464022  0.82174774     1.06800
C48         C  0.54637145  0.95800489  0.81994317     1.06400
C49         C  0.49181161  0.90326035  0.75038299     1.06800
C50         C  0.38387674  0.00911996  0.74399126     1.06300
H51         H  0.49116264  0.95114752  0.78819266     0.33000
O52         O  0.49126114  0.96854668  0.77518363    -1.29500
H53         H  0.43056038  0.01075494  0.70091652     0.33000
O54         O  0.44820945  0.01090163  0.71361367    -1.30900
C55         C  0.67890965  0.21126174  0.49322212     0.86600
C56         C  0.66733108  0.19083587  0.51868338    -0.53600
C57         C  0.63677019  0.18916298  0.52086045     0.09500
C58         C  0.62058135  0.20841521  0.49721023     0.20500
C59         C  0.66357209  0.19930360  0.46453969    -0.54300
C60         C  0.63309427  0.19738151  0.46651385     0.09700
C61         C  0.66455549  0.24150147  0.49915946    -0.53900
C62         C  0.63414149  0.24042134  0.50204851     0.10200
H63         H  0.68217657  0.17885627  0.53371011     0.14700
H64         H  0.59579532  0.20734294  0.49901633     0.00500
H65         H  0.67567802  0.19123075  0.44501247     0.15000
H66         H  0.67790401  0.26194601  0.50168259     0.14800
O67         O  0.54990419  0.07594529  0.29389069    -0.86400
O68         O  0.43477577  0.94861601  0.29453849    -0.86500
O69         O  0.46218360  0.04577279  0.33174144    -0.88200
O70         O  0.52933508  0.97618807  0.33048634    -0.86900
O71         O  0.55342155  0.94972855  0.29330598    -0.86500
O72         O  0.43718753  0.07215625  0.29522488    -0.87900
O73         O  0.46184873  0.97367632  0.33115978    -0.86400
O74         O  0.52589809  0.04945344  0.33118725    -0.86000
Zr75       Zr  0.49452903  0.01046993  0.30635952     2.84300
O76         O  0.49346535  0.96740174  0.27552528    -1.07900
O77         O  0.49342040  0.05290889  0.27548848    -1.08700
C78         C  0.54349037  0.07085580  0.32175266     1.06800
C79         C  0.44229253  0.95383144  0.32223177     1.06700
C80         C  0.44416034  0.06638725  0.32283209     1.09700
C81         C  0.54800151  0.95624614  0.32116174     1.07500
H82         H  0.43381728  0.00991541  0.28970233     0.33000
O83         O  0.45108756  0.01015712  0.27650256    -1.28900
H84         H  0.55450133  0.01142801  0.28868129     0.32700
O85         O  0.53692597  0.01111511  0.27580972    -1.30600
O86         O  0.43018910  0.95414728  0.19548107    -0.86300
O87         O  0.55659079  0.06890727  0.19678739    -0.87800
O88         O  0.39816880  0.03452137  0.25008434    -0.86400
O89         O  0.51753512  0.91610344  0.24193365    -0.86500
O90         O  0.58771887  0.98631633  0.24598312    -0.86200
O91         O  0.46804911  0.10505845  0.24267384    -0.86000
O92         O  0.45633909  0.04366020  0.16007077    -0.86400
O93         O  0.52726965  0.97759061  0.15903661    -0.85800
O94         O  0.42922479  0.06742045  0.19688828    -0.86900
O95         O  0.55268522  0.95127612  0.19530974    -0.86000
O96         O  0.39834642  0.98280188  0.24952952    -0.86400
O97         O  0.51951668  0.10634228  0.24338431    -0.86200
O98         O  0.58762048  0.03798008  0.24980231    -0.85800
O99         O  0.46606813  0.91575368  0.24104363    -0.86200
O100        O  0.45594305  0.98020883  0.15890039    -0.86500
O101        O  0.52923908  0.04546279  0.15944934    -0.87900
Zr102      Zr  0.45036085  0.96757670  0.24524148     2.83100
Zr103      Zr  0.53601577  0.05419958  0.24537955     2.83500
Zr104      Zr  0.45025605  0.05285376  0.24560049     2.84100
Zr105      Zr  0.53584005  0.96814298  0.24471963     2.83400
Zr106      Zr  0.49312037  0.01153166  0.18428767     2.84200
O107        O  0.53600215  0.01130908  0.21464117    -1.08400
O108        O  0.45033371  0.01028631  0.21480052    -1.07900
C109        C  0.43524912  0.96185469  0.16785888     1.06700
C110        C  0.55043791  0.06333578  0.16886542     1.09300
C111        C  0.38503481  0.00837318  0.25163407     1.06900
C112        C  0.49171119  0.90282045  0.23967270     1.07300
C113        C  0.60081216  0.01228832  0.24910823     1.06800
C114        C  0.49366776  0.11897108  0.24181526     1.06400
C115        C  0.43527568  0.06122273  0.16907281     1.06800
C116        C  0.54661753  0.95813843  0.16772618     1.06300
H117        H  0.49302329  0.07191971  0.20191857     0.33000
O118        O  0.49306935  0.05434904  0.21479221    -1.29500
H119        H  0.49245176  0.95065349  0.20104315     0.33000
O120        O  0.49286567  0.96812779  0.21421353    -1.30900
C121        C  0.29479501  0.82599862  0.99386548     0.86600
C122        C  0.30667679  0.84183648  0.96545632    -0.53600
C123        C  0.30828540  0.87263921  0.96786116     0.09500
C124        C  0.29609967  0.88474635  0.99830529     0.20500
C125        C  0.31473134  0.83796304  0.01935460    -0.54300
C126        C  0.31546967  0.86866964  0.02184866     0.09700
C127        C  0.26430653  0.83969934  0.99966944    -0.53900
C128        C  0.26436122  0.87025533  0.00257406     0.10200
H129        H  0.31535020  0.82981712  0.94609117     0.14700
H130        H  0.29664565  0.90967994  0.00044554     0.00500
H131        H  0.32729901  0.82319872  0.03398606     0.15000
H132        H  0.24425533  0.82583507  0.00196896     0.14800
C133        C  0.67998527  0.82142057  0.99300039     0.86600
C134        C  0.66075645  0.83299908  0.01894494    -0.53600
C135        C  0.65794962  0.86356631  0.01921291     0.09500
C136        C  0.67521260  0.87982614  0.99395180     0.20500
C137        C  0.66574047  0.83423340  0.96449895    -0.54300
C138        C  0.66320602  0.86480213  0.96496342     0.09700
C139        C  0.70985146  0.83820161  0.99636462    -0.53900
C140        C  0.70757751  0.86881762  0.99695460     0.10200
H141        H  0.64972010  0.81836994  0.03515428     0.14700
H142        H  0.67344378  0.90467381  0.99462920     0.00500
H143        H  0.65765691  0.82025878  0.94597815     0.15000
H144        H  0.73105005  0.82663947  0.99835235     0.14800
C145        C  0.68744282  0.82364928  0.49462034     0.86600
C146        C  0.67498643  0.84147133  0.46805659    -0.53600
C147        C  0.64464243  0.84442281  0.46872598     0.09500
C148        C  0.62950053  0.82913880  0.49596459     0.20500
C149        C  0.67603386  0.83991739  0.52300922    -0.54300
C150        C  0.64563775  0.84302322  0.52358309     0.09700
C151        C  0.67040911  0.79373034  0.49397392    -0.53900
C152        C  0.64004449  0.79627686  0.49494027     0.10200
H153        H  0.68893253  0.85120040  0.45049978     0.14700
H154        H  0.60480903  0.83115885  0.49639046     0.00500
H155        H  0.69065993  0.84887134  0.54054179     0.15000
H156        H  0.68170121  0.77219295  0.49350987     0.14800
C157        C  0.30226545  0.19856605  0.99613635     0.86600
C158        C  0.31725531  0.18462485  0.02374865    -0.53600
C159        C  0.31798657  0.15390912  0.02301950     0.09500
C160        C  0.30382033  0.13981519  0.99458534     0.20500
C161        C  0.31924362  0.18597283  0.96899756    -0.54300
C162        C  0.32023192  0.15525073  0.96835068     0.09700
C163        C  0.27136316  0.18345890  0.99442039    -0.53900
C164        C  0.27195247  0.15267146  0.99320649     0.10200
H165        H  0.32701070  0.19790587  0.04197187     0.14700
H166        H  0.30462344  0.11485057  0.99401266     0.00500
H167        H  0.32995904  0.20003463  0.95209608     0.15000
H168        H  0.25080281  0.19622217  0.99336783     0.14800
C169        C  0.68752363  0.19857608  0.99691272     0.86600
C170        C  0.66386386  0.18791336  0.97398301    -0.53600
C171        C  0.66110612  0.15730259  0.97178389     0.09500
C172        C  0.68206075  0.14012260  0.99295938     0.20500
C173        C  0.67839788  0.18336314  0.02673615    -0.54300
C174        C  0.67495231  0.15279760  0.02453207     0.09700
C175        C  0.71616549  0.18290419  0.98712695    -0.53900
C176        C  0.71359142  0.15239047  0.98494047     0.10200
H177        H  0.65109298  0.20320211  0.96007080     0.14700
H178        H  0.67985111  0.11525058  0.99112787     0.00500
H179        H  0.67230166  0.19567638  0.04692475     0.15000
H180        H  0.73677258  0.19509324  0.98200591     0.14800
C181        C  0.30410979  0.20266862  0.49386908     0.86600
C182        C  0.31599280  0.18347675  0.46786303    -0.53600
C183        C  0.34636659  0.18052796  0.46799173     0.09500
C184        C  0.36221525  0.19697718  0.49422416     0.20500
C185        C  0.31620523  0.18790991  0.52262545    -0.54300
C186        C  0.34669161  0.18475265  0.52274329     0.09700
C187        C  0.32125773  0.23244923  0.49170069    -0.53900
C188        C  0.35164128  0.22983361  0.49170632     0.10200
H189        H  0.30162209  0.17324081  0.45080627     0.14700
H190        H  0.38691879  0.19448732  0.49425250     0.00500
H191        H  0.30194140  0.17991835  0.54075621     0.15000
H192        H  0.31002753  0.25394887  0.49004887     0.14800
C193        C  0.30484623  0.81248852  0.49616848     0.86600
C194        C  0.32020244  0.82563218  0.52422825    -0.53600
C195        C  0.35064229  0.82830245  0.52158556     0.09500
C196        C  0.36295599  0.81619890  0.49126203     0.20500
C197        C  0.31567792  0.83258454  0.47004584    -0.54300
C198        C  0.34611978  0.83445320  0.46732029     0.09700
C199        C  0.31961766  0.78232645  0.49091136    -0.53900
C200        C  0.34991168  0.78373975  0.48769693     0.10200
H201        H  0.30793174  0.83391465  0.54361436     0.14700
H202        H  0.38769655  0.81768678  0.48915618     0.00500
H203        H  0.30060101  0.84463350  0.45532977     0.15000
H204        H  0.30662881  0.76156287  0.48914464     0.14800
O205        O  0.89956490  0.76273434  0.47276509    -0.86400
O206        O  0.01818902  0.75777330  0.59379393    -0.86500
O207        O  0.93176610  0.71196227  0.55757386    -0.88200
O208        O  0.93536150  0.80889842  0.56056562    -0.86900
O209        O  0.96058830  0.84553899  0.53394769    -0.86500
O210        O  0.95741569  0.67496088  0.53250186    -0.87900
O211        O  0.96681350  0.75708539  0.59403388    -0.86400
O212        O  0.89969007  0.76303578  0.52448568    -0.86000
Zr213      Zr  0.95135741  0.76028329  0.54153144     2.84300
O214        O  0.99409549  0.79115795  0.54156871    -1.07900
O215        O  0.95074322  0.72885619  0.49905148    -1.08700
C216        C  0.88654975  0.76439273  0.49861112     1.06800
C217        C  0.99256411  0.75615979  0.60719058     1.06700
C218        C  0.93736793  0.68426374  0.55121042     1.09700
C219        C  0.94155736  0.83659644  0.55408200     1.07500
H220        H  0.99328569  0.71639984  0.55940976     0.33000
O221        O  0.99341721  0.72919855  0.54184486    -1.28900
H222        H  0.93431628  0.80336791  0.49825664     0.32700
O223        O  0.95164901  0.79055682  0.49846396    -1.30600
O224        O  0.08794829  0.76124923  0.52569020    -0.86300
O225        O  0.96698045  0.75436295  0.40447009    -0.87800
O226        O  0.02967490  0.67414368  0.53126245    -0.86400
O227        O  0.02790190  0.84589979  0.53451481    -0.86500
O228        O  0.96130857  0.84486261  0.46214430    -0.86200
O229        O  0.95775633  0.67339056  0.46469799    -0.86000
O230        O  0.05690023  0.71168619  0.44144088    -0.86400
O231        O  0.05377928  0.80929390  0.43623748    -0.85800
O232        O  0.03106260  0.67457107  0.46679255    -0.86900
O233        O  0.02789203  0.84626937  0.46095362    -0.86000
O234        O  0.05434976  0.71131288  0.55803361    -0.86400
O235        O  0.93036831  0.70986235  0.44115179    -0.86200
O236        O  0.93747838  0.80731977  0.43508761    -0.85800
O237        O  0.05202701  0.80922220  0.56135662    -0.86200
O238        O  0.08824059  0.76360755  0.47396963    -0.86500
O239        O  0.01821477  0.75954683  0.40346720    -0.87900
Zr240      Zr  0.03602613  0.76029330  0.54188825     2.83100
Zr241      Zr  0.95119487  0.75886986  0.45614423     2.83500
Zr242      Zr  0.99353574  0.69879616  0.49855439     2.84100
Zr243      Zr  0.99468322  0.82129557  0.49818333     2.83400
Zr244      Zr  0.03667658  0.76052898  0.45564808     2.84200
O245        O  0.99388551  0.79005090  0.45561825    -1.08400
O246        O  0.03584675  0.73031801  0.49863547    -1.07900
C247        C  0.10127588  0.76323086  0.49999721     1.06700
C248        C  0.99228647  0.75609277  0.39073243     1.09300
C249        C  0.04926614  0.68349572  0.55072568     1.06900
C250        C  0.04581028  0.83687271  0.55540641     1.07300
C251        C  0.94362054  0.83520320  0.44106637     1.06800
C252        C  0.93645269  0.68214212  0.44710462     1.06400
C253        C  0.05160403  0.68387604  0.44842539     1.06800
C254        C  0.04698212  0.83714893  0.44096445     1.06300
H255        H  0.99406785  0.71585183  0.43792565     0.33000
O256        O  0.99401859  0.72887335  0.45546383    -1.29500
H257        H  0.05472370  0.80399665  0.49910251     0.33000
O258        O  0.03710954  0.79109248  0.49887947    -1.30900
O259        O  0.89885589  0.25224465  0.47172307    -0.86400
O260        O  0.02037075  0.26293152  0.59130259    -0.86500
O261        O  0.93507889  0.20818151  0.56044425    -0.88200
O262        O  0.93442671  0.30514303  0.55966415    -0.86900
O263        O  0.95996985  0.34233966  0.53415126    -0.86500
O264        O  0.96018054  0.17140006  0.53467986    -0.87900
O265        O  0.96903202  0.25927335  0.59239945    -0.86400
O266        O  0.89935173  0.25121102  0.52346884    -0.86000
Zr267      Zr  0.95124798  0.25666044  0.54071210     2.84300
O268        O  0.99400757  0.28781034  0.54098667    -1.07900
O269        O  0.95015349  0.22697235  0.49713350    -1.08700
C270        C  0.88599605  0.24959696  0.49760495     1.06800
C271        C  0.99488703  0.26302217  0.60492268     1.06700
C272        C  0.94160874  0.18043562  0.55519493     1.09700
C273        C  0.94069247  0.33295030  0.55360363     1.07500
H274        H  0.99458473  0.21472362  0.55825589     0.33000
O275        O  0.99410788  0.22699797  0.54051108    -1.28900
H276        H  0.93302257  0.29941731  0.49917120     0.32700
O277        O  0.95086434  0.28765305  0.49837391    -1.30600
O278        O  0.08779681  0.25334953  0.52068030    -0.86300
O279        O  0.96765983  0.26300660  0.40216218    -0.87800
O280        O  0.02914597  0.17281901  0.52980405    -0.86400
O281        O  0.03055274  0.34338088  0.53314992    -0.86500
O282        O  0.95552117  0.34339669  0.46798516    -0.86200
O283        O  0.95746432  0.17293909  0.46194999    -0.86000
O284        O  0.05039981  0.20998084  0.43535757    -0.86400
O285        O  0.05083527  0.30908643  0.43684397    -0.85800
O286        O  0.02469648  0.17251682  0.46042325    -0.86900
O287        O  0.02671762  0.34548867  0.46420428    -0.86000
O288        O  0.05432558  0.20956067  0.55673319    -0.86400
O289        O  0.93261282  0.20925778  0.43533840    -0.86200
O290        O  0.93056530  0.30690783  0.44043655    -0.85800
O291        O  0.05723064  0.30663751  0.55711140    -0.86200
O292        O  0.08774149  0.25675124  0.46909026    -0.86500
O293        O  0.01904115  0.26321155  0.40148635    -0.87900
Zr294      Zr  0.03689037  0.25824677  0.53949715     2.83100
Zr295      Zr  0.95028806  0.25803921  0.45447247     2.83500
Zr296      Zr  0.99255244  0.19691286  0.49706848     2.84100
Zr297      Zr  0.99375630  0.31898879  0.49885198     2.83400
Zr298      Zr  0.03521758  0.25925017  0.45381005     2.84200
O299        O  0.99277269  0.28948676  0.45491232    -1.08400
O300        O  0.03515909  0.22825024  0.49624150    -1.07900
C301        C  0.10086378  0.25302117  0.49474478     1.06700
C302        C  0.99323062  0.26503925  0.38853428     1.09300
C303        C  0.04850789  0.18185365  0.54970208     1.06900
C304        C  0.05128281  0.33449272  0.55146788     1.07300
C305        C  0.93538647  0.33443887  0.44880051     1.06800
C306        C  0.93863218  0.18160907  0.44172362     1.06400
C307        C  0.04360398  0.18210968  0.44059133     1.06800
C308        C  0.04532508  0.33670464  0.44390086     1.06300
H309        H  0.99226647  0.21592570  0.43587591     0.33000
O310        O  0.99264215  0.22790400  0.45394536    -1.29500
H311        H  0.05466542  0.30177438  0.49703881     0.33000
O312        O  0.03689985  0.28939634  0.49722437    -1.30900
C313        C  0.80066473  0.50723579  0.68517599     0.86600
C314        C  0.82131389  0.48169980  0.67527808    -0.53600
C315        C  0.82697442  0.48143323  0.64506901     0.09500
C316        C  0.81113671  0.50641179  0.62754332     0.20500
C317        C  0.81578676  0.53624008  0.67356929    -0.54300
C318        C  0.82150762  0.53560219  0.64337273     0.09700
C319        C  0.77254356  0.50329542  0.66596359    -0.53900
C320        C  0.77791804  0.50264553  0.63577477     0.10200
H321        H  0.83073508  0.46547879  0.69077266     0.14700
H322        H  0.81508356  0.50584192  0.60288944     0.00500
H323        H  0.82240235  0.55501708  0.68798220     0.15000
H324        H  0.75022256  0.50131840  0.67550124     0.14800
C325        C  0.19319368  0.51242695  0.68330356     0.86600
C326        C  0.17264438  0.53763961  0.67229974    -0.53600
C327        C  0.16942962  0.53859015  0.64165660     0.09500
C328        C  0.18713214  0.51407459  0.62483023     0.20500
C329        C  0.17966937  0.48329985  0.66972164    -0.54300
C330        C  0.17569254  0.48421659  0.63909206     0.09700
C331        C  0.22243023  0.51749405  0.66660917    -0.53900
C332        C  0.21977224  0.51886073  0.63622701     0.10200
H333        H  0.16178208  0.55338923  0.68740835     0.14700
H334        H  0.18499950  0.51486199  0.59995208     0.00500
H335        H  0.17204288  0.46447321  0.68335472     0.15000
H336        H  0.24366584  0.52100405  0.67820271     0.14800
C337        C  0.80147444  0.00342795  0.30504971     0.86600
C338        C  0.81305031  0.97539504  0.32124985    -0.53600
C339        C  0.84329399  0.97628688  0.32593928     0.09500
C340        C  0.85912492  0.00456302  0.31383365     0.20500
C341        C  0.81240504  0.03020089  0.32421384    -0.54300
C342        C  0.84265968  0.03090621  0.32871979     0.09700
C343        C  0.81960573  0.00538647  0.27613532    -0.53900
C344        C  0.84979655  0.00576238  0.28057520     0.10200
H345        H  0.79872161  0.95704744  0.32892128     0.14700
H346        H  0.88375580  0.00507679  0.31738692     0.00500
H347        H  0.79748645  0.04700950  0.33340475     0.15000
H348        H  0.80933652  0.00625697  0.25394551     0.14800
C349        C  0.80272029  0.01000170  0.69041151     0.86600
C350        C  0.81876407  0.03877072  0.67972336    -0.53600
C351        C  0.84925798  0.03691197  0.67935483     0.09500
C352        C  0.86105428  0.00628635  0.69075444     0.20500
C353        C  0.81471596  0.98483271  0.67013077    -0.54300
C354        C  0.84523794  0.98286477  0.67002249     0.09700
C355        C  0.81589492  0.00378279  0.72133802    -0.53900
C356        C  0.84638258  0.00152551  0.72220055     0.10200
H357        H  0.80704433  0.05823548  0.67120033     0.14700
H358        H  0.88582532  0.00463854  0.69095379     0.00500
H359        H  0.80030602  0.97010026  0.65673678     0.15000
H360        H  0.80161476  0.00140408  0.74090966     0.14800
C361        C  0.79836052  0.50660559  0.31046640     0.86600
C362        C  0.81063242  0.53599664  0.32427139    -0.53600
C363        C  0.81366611  0.53537965  0.35497595     0.09500
C364        C  0.80299496  0.50524028  0.36909166     0.20500
C365        C  0.81920618  0.48200551  0.32208362    -0.54300
C366        C  0.82133930  0.48086020  0.35283741     0.09700
C367        C  0.76872449  0.50072199  0.32645269    -0.53900
C368        C  0.77076204  0.49989784  0.35705141     0.10200
H369        H  0.81782008  0.55498856  0.31066371     0.14700
H370        H  0.80490935  0.50447161  0.39401595     0.00500
H371        H  0.83056624  0.46642472  0.30720685     0.15000
H372        H  0.74782746  0.49689792  0.31436361     0.14800
C373        C  0.18636799  0.50844716  0.31010863     0.86600
C374        C  0.16973640  0.48065529  0.32228188    -0.53600
C375        C  0.16648513  0.48091706  0.35284146     0.09500
C376        C  0.18016437  0.50874943  0.36853091     0.20500
C377        C  0.16880825  0.53557345  0.32213676    -0.54300
C378        C  0.16526396  0.53557485  0.35277259     0.09700
C379        C  0.21590859  0.50944832  0.32735630    -0.53900
C380        C  0.21287188  0.50960463  0.35796251     0.10200
H381        H  0.16088252  0.46270224  0.30799333     0.14700
H382        H  0.17795357  0.50894616  0.39342005     0.00500
H383        H  0.15944715  0.55278483  0.30774096     0.15000
H384        H  0.23749124  0.50975786  0.31611497     0.14800
C385        C  0.18083135  0.01099406  0.30142246     0.86600
C386        C  0.16851912  0.03543217  0.32247705    -0.53600
C387        C  0.13794970  0.03606703  0.32368845     0.09500
C388        C  0.12241155  0.01197306  0.30368609     0.20500
C389        C  0.16658445  0.98135838  0.31255581    -0.54300
C390        C  0.13598205  0.98186951  0.31436227     0.09700
C391        C  0.16594963  0.01689473  0.27109043    -0.53900
C392        C  0.13551806  0.01761176  0.27180190     0.10200
H393        H  0.18274392  0.05103480  0.33507026     0.14700
H394        H  0.09760318  0.01260505  0.30454729     0.00500
H395        H  0.17964311  0.96240095  0.32021885     0.15000
H396        H  0.17872330  0.02076208  0.25062624     0.14800
C397        C  0.18010167  0.01258347  0.69864330     0.86600
C398        C  0.17079232  0.98527574  0.67920207    -0.53600
C399        C  0.14121385  0.98501584  0.67134267     0.09500
C400        C  0.12378306  0.01213340  0.68345945     0.20500
C401        C  0.17085928  0.04018768  0.68025191    -0.54300
C402        C  0.14133063  0.03992882  0.67219666     0.09700
C403        C  0.15878512  0.01158405  0.72552275    -0.53900
C404        C  0.12926036  0.01129714  0.71762015     0.10200
H405        H  0.18616785  0.96779598  0.67238092     0.14700
H406        H  0.09968440  0.01189288  0.67723678     0.00500
H407        H  0.18647196  0.05786284  0.67358567     0.15000
H408        H  0.16635589  0.01044449  0.74876143     0.14800
O409        O  0.73919957  0.60698763  0.97175713    -0.86400
O410        O  0.75003539  0.48533458  0.09109888    -0.86500
O411        O  0.69471168  0.56894658  0.06028675    -0.88200
O412        O  0.79117084  0.57544410  0.05681830    -0.86900
O413        O  0.82807790  0.54935759  0.03229721    -0.86500
O414        O  0.65869331  0.54388627  0.03251624    -0.87900
O415        O  0.75101215  0.53708115  0.09154515    -0.86400
O416        O  0.73523802  0.60577239  0.02331952    -0.86000
Zr417      Zr  0.74332360  0.55446280  0.04037833     2.84300
O418        O  0.77357500  0.51191819  0.04003258    -1.07900
O419        O  0.71416114  0.55423204  0.99683774    -1.08700
C420        C  0.73444413  0.61935782  0.99769019     1.06800
C421        C  0.75316743  0.51116617  0.10435036     1.06700
C422        C  0.66726296  0.56235654  0.05352829     1.09700
C423        C  0.81879602  0.56986719  0.05066706     1.07500
H424        H  0.70111639  0.51048172  0.05792149     0.33000
O425        O  0.71325475  0.51093424  0.04006600    -1.28900
H426        H  0.78664570  0.57418138  0.99837976     0.32700
O427        O  0.77471473  0.55599492  0.99818959    -1.30600
O428        O  0.73972075  0.41663380  0.02087653    -0.86300
O429        O  0.75096793  0.53804890  0.90280853    -0.87800
O430        O  0.65811289  0.47677415  0.03034559    -0.86400
O431        O  0.82812125  0.47651442  0.03141215    -0.86500
O432        O  0.83125688  0.54779089  0.96478629    -0.86200
O433        O  0.66038486  0.54654607  0.96262954    -0.86000
O434        O  0.69607878  0.45236457  0.93372339    -0.86400
O435        O  0.79334314  0.45300935  0.93656916    -0.85800
O436        O  0.65941215  0.47856784  0.95837614    -0.86900
O437        O  0.82957225  0.47884439  0.96342128    -0.86000
O438        O  0.69455793  0.45168980  0.05645674    -0.86400
O439        O  0.69743130  0.57048667  0.93547867    -0.86200
O440        O  0.79511326  0.57352184  0.93903239    -0.85800
O441        O  0.79156798  0.44852213  0.05511536    -0.86200
O442        O  0.74052404  0.41719115  0.96916666    -0.86500
O443        O  0.74771611  0.48638296  0.90181608    -0.87900
Zr444      Zr  0.74363835  0.46841222  0.03905387     2.83100
Zr445      Zr  0.74556772  0.55515175  0.95466781     2.83500
Zr446      Zr  0.68371473  0.51109483  0.99625564     2.84100
Zr447      Zr  0.80468035  0.51289867  0.99796927     2.83400
Zr448      Zr  0.74439692  0.46945156  0.95350319     2.84200
O449        O  0.77528899  0.51244115  0.95442618    -1.08400
O450        O  0.71347922  0.46822815  0.99591204    -1.07900
C451        C  0.73833575  0.40372515  0.99477689     1.06700
C452        C  0.75120380  0.51226100  0.88922080     1.09300
C453        C  0.66705215  0.45777758  0.05023987     1.06900
C454        C  0.81912665  0.45523626  0.04916282     1.07300
C455        C  0.82268460  0.56767075  0.94555780     1.06800
C456        C  0.66986834  0.56484317  0.94221734     1.06400
C457        C  0.66849480  0.45931090  0.93852887     1.06800
C458        C  0.82076505  0.45927827  0.94360133     1.06300
H459        H  0.70278989  0.51227377  0.93541007     0.33000
O460        O  0.71463886  0.51217498  0.95353034    -1.29500
H461        H  0.78649323  0.45141878  0.99624958     0.33000
O462        O  0.77442766  0.46918908  0.99659527    -1.30900
O463        O  0.25306341  0.60487300  0.97249224    -0.86400
O464        O  0.23897721  0.48483753  0.09235865    -0.86500
O465        O  0.19557748  0.57197502  0.05544287    -0.88200
O466        O  0.29384756  0.56701593  0.06268818    -0.86900
O467        O  0.33026578  0.54258438  0.03593248    -0.86500
O468        O  0.15868697  0.54599938  0.02972285    -0.87900
O469        O  0.23808443  0.53662827  0.09222636    -0.86400
O470        O  0.25047029  0.60524262  0.02420784    -0.86000
Zr471      Zr  0.24466009  0.55305020  0.04074937     2.84300
O472        O  0.27378458  0.50954325  0.04185800    -1.07900
O473        O  0.21490216  0.55372469  0.99716320    -1.08700
C474        C  0.25418816  0.61822442  0.99842706     1.06800
C475        C  0.23659865  0.51085647  0.10544133     1.06700
C476        C  0.16787376  0.56616278  0.04883014     1.09700
C477        C  0.32154326  0.56055568  0.05705939     1.07500
H478        H  0.19998956  0.50980422  0.05672401     0.33000
O479        O  0.21340432  0.50995742  0.03961869    -1.28900
H480        H  0.28935947  0.56970090  0.99899535     0.32700
O481        O  0.27581703  0.55252595  0.99853794    -1.30600
O482        O  0.24932661  0.41464939  0.02163161    -0.86300
O483        O  0.24315777  0.53594015  0.90224131    -0.87800
O484        O  0.15763772  0.47285314  0.02708920    -0.86400
O485        O  0.32704278  0.47366223  0.03537347    -0.86500
O486        O  0.33096898  0.54165062  0.96406113    -0.86200
O487        O  0.16099845  0.54734341  0.96230850    -0.86000
O488        O  0.19633936  0.44662185  0.93863332    -0.86400
O489        O  0.29373147  0.45216009  0.93583156    -0.85800
O490        O  0.16023094  0.47561885  0.96086216    -0.86900
O491        O  0.32994871  0.47767880  0.96294232    -0.86000
O492        O  0.19353665  0.44621675  0.05238314    -0.86400
O493        O  0.19824243  0.57302797  0.93716617    -0.86200
O494        O  0.29556825  0.56628458  0.93607791    -0.85800
O495        O  0.28966199  0.44872284  0.06099348    -0.86200
O496        O  0.24957229  0.41520555  0.96986654    -0.86500
O497        O  0.24207700  0.48420007  0.90229262    -0.87900
Zr498      Zr  0.24286631  0.46652655  0.04012080     2.83100
Zr499      Zr  0.24605144  0.55300688  0.95476870     2.83500
Zr500      Zr  0.18387318  0.51060848  0.99615436     2.84100
Zr501      Zr  0.30502223  0.50935202  0.99969410     2.83400
Zr502      Zr  0.24474168  0.46725118  0.95432129     2.84200
O503        O  0.27565308  0.50994733  0.95577250    -1.08400
O504        O  0.21341440  0.46718161  0.99650587    -1.07900
C505        C  0.25205062  0.40188006  0.99548543     1.06700
C506        C  0.24129049  0.50998449  0.88896636     1.09300
C507        C  0.16613322  0.45174315  0.04511769     1.06900
C508        C  0.31741580  0.45462270  0.05525427     1.07300
C509        C  0.32277967  0.55959547  0.94290274     1.06800
C510        C  0.17044585  0.56743247  0.94343666     1.06400
C511        C  0.16889903  0.45391460  0.94363280     1.06800
C512        C  0.32119058  0.45906168  0.94222679     1.06300
H513        H  0.20223548  0.51035038  0.93597004     0.33000
O514        O  0.21480195  0.51026415  0.95379035    -1.29500
H515        H  0.28742581  0.44947829  0.99787248     0.33000
O516        O  0.27438187  0.46669772  0.99795591    -1.30900
C517        C  0.99555157  0.70947976  0.81260174     0.86600
C518        C  0.02074482  0.68863376  0.82322263    -0.53600
C519        C  0.02230437  0.68549389  0.85393882     0.09500
C520        C  0.99839779  0.70355187  0.87099316     0.20500
C521        C  0.96693617  0.69615439  0.82667253    -0.54300
C522        C  0.96854026  0.69229650  0.85708988     0.09700
C523        C  0.00136024  0.73891698  0.82919289    -0.53900
C524        C  0.00306257  0.73615050  0.85955799     0.10200
H525        H  0.03602178  0.67759243  0.80785383     0.14700
H526        H  0.99950816  0.70162072  0.89585613     0.00500
H527        H  0.94800565  0.68791449  0.81356575     0.15000
H528        H  0.00469606  0.76026859  0.81767847     0.14800
C529        C  0.99127770  0.31842718  0.80776188     0.86600
C530        C  0.96524712  0.33770920  0.81852381    -0.53600
C531        C  0.96457922  0.34201445  0.84899776     0.09500
C532        C  0.99068223  0.32709228  0.86587473     0.20500
C533        C  0.01962197  0.33431837  0.81982919    -0.54300
C534        C  0.01913435  0.33906251  0.85029427     0.09700
C535        C  0.98885220  0.28949637  0.82587736    -0.53900
C536        C  0.98871855  0.29378851  0.85631578     0.10200
H537        H  0.94872965  0.34681504  0.80322574     0.14700
H538        H  0.99040893  0.33061011  0.89066744     0.00500
H539        H  0.03809104  0.34160501  0.80563844     0.15000
H540        H  0.98778437  0.26737336  0.81533324     0.14800
C541        C  0.49690201  0.70261512  0.81173020     0.86600
C542        C  0.46900076  0.68990125  0.82755682    -0.53600
C543        C  0.46874970  0.65914999  0.82994261     0.09500
C544        C  0.49602441  0.64399835  0.81555939     0.20500
C545        C  0.52343336  0.68991273  0.82928699    -0.54300
C546        C  0.52291216  0.65924704  0.83121108     0.09700
C547        C  0.49752226  0.68654420  0.78127309    -0.53900
C548        C  0.49716346  0.65589723  0.78296136     0.10200
H549        H  0.45168512  0.70399699  0.83704211     0.14700
H550        H  0.49563238  0.61906128  0.81721372     0.00500
H551        H  0.54093254  0.70387615  0.83938589     0.15000
H552        H  0.49855122  0.69861730  0.76005139     0.14800
C553        C  0.49637938  0.69809290  0.19324726     0.86600
C554        C  0.52115638  0.68648591  0.17272092    -0.53600
C555        C  0.52254549  0.65588260  0.17127096     0.09500
C556        C  0.49862382  0.63946109  0.19024415     0.20500
C557        C  0.46749867  0.68340428  0.18125399    -0.54300
C558        C  0.46862095  0.65265213  0.17912226     0.09700
C559        C  0.50188056  0.68315202  0.22357367    -0.53900
C560        C  0.50369531  0.65246302  0.22240572     0.10200
H561        H  0.53649160  0.70124288  0.16061745     0.14700
H562        H  0.49983490  0.61452262  0.18885363     0.00500
H563        H  0.44858478  0.69632782  0.17335326     0.15000
H564        H  0.50505176  0.69616462  0.24412359     0.14800
C565        C  0.99357156  0.31833228  0.18412370     0.86600
C566        C  0.02141445  0.33125967  0.16831306    -0.53600
C567        C  0.01897123  0.33241890  0.13756570     0.09500
C568        C  0.98867813  0.32003286  0.12545643     0.20500
C569        C  0.96749968  0.33756836  0.17288847    -0.54300
C570        C  0.96510352  0.33870257  0.14217572     0.09700
C571        C  0.98838498  0.28767247  0.16963764    -0.53900
C572        C  0.98490384  0.28813172  0.13910659     0.10200
H573        H  0.04089657  0.33978746  0.18044653     0.14700
H574        H  0.98634574  0.32062433  0.10055313     0.00500
H575        H  0.95240371  0.34936266  0.18787554     0.15000
H576        H  0.98652846  0.26737920  0.18305936     0.14800
C577        C  0.99682925  0.70672929  0.18653080     0.86600
C578        C  0.96863871  0.69016734  0.17481901    -0.53600
C579        C  0.96899225  0.68470816  0.14451073     0.09500
C580        C  0.99717861  0.69709058  0.12864876     0.20500
C581        C  0.02319701  0.68748214  0.17594744    -0.54300
C582        C  0.02323856  0.68224979  0.14558802     0.09700
C583        C  0.99900577  0.73546017  0.16790694    -0.53900
C584        C  0.99916397  0.73065099  0.13763826     0.10200
H585        H  0.95052041  0.68254360  0.18929269     0.14700
H586        H  0.99764826  0.69344991  0.10392097     0.00500
H587        H  0.03991439  0.67842268  0.19109375     0.15000
H588        H  0.00012617  0.75785007  0.17789101     0.14800
C589        C  0.49358126  0.32407931  0.80163707     0.86600
C590        C  0.52249323  0.33892913  0.81345168    -0.53600
C591        C  0.52074396  0.36942088  0.81705362     0.09500
C592        C  0.49011630  0.38242087  0.80734687     0.20500
C593        C  0.46916256  0.33411347  0.82347944    -0.54300
C594        C  0.46701624  0.36463195  0.82635670     0.09700
C595        C  0.48666391  0.34021047  0.77226463    -0.53900
C596        C  0.48465060  0.37067277  0.77475634     0.10200
H597        H  0.54205496  0.32638698  0.82020223     0.14700
H598        H  0.48834101  0.40722875  0.80972456     0.00500
H599        H  0.45458493  0.31836576  0.83527090     0.15000
H600        H  0.48315771  0.32824615  0.75111118     0.14800
C601        C  0.49410029  0.32431946  0.19382410     0.86600
C602        C  0.46571260  0.33484707  0.17757806    -0.53600
C603        C  0.46590953  0.36493308  0.17133726     0.09500
C604        C  0.49402352  0.38191122  0.18275564     0.20500
C605        C  0.52022966  0.33495218  0.17385498    -0.54300
C606        C  0.52025662  0.36514713  0.16808134     0.09700
C607        C  0.49623016  0.34389717  0.22197745    -0.53900
C608        C  0.49647138  0.37404158  0.21633499     0.10200
H609        H  0.44771571  0.31973957  0.17046672     0.14700
H610        H  0.49388399  0.40653025  0.17863378     0.00500
H611        H  0.53720697  0.31993787  0.16519421     0.15000
H612        H  0.49796075  0.33461082  0.24451214     0.14800
O613        O  0.54095962  0.44263982  0.54903338    -0.86400
O614        O  0.47644414  0.49884387  0.40243125    -0.86500
O615        O  0.48070527  0.41782865  0.47253506    -0.88200
O616        O  0.56605891  0.46241807  0.45034838    -0.86900
O617        O  0.58556315  0.51007746  0.45754522    -0.86500
O618        O  0.43964966  0.43270348  0.49956473    -0.87900
O619        O  0.50496485  0.45879034  0.41717790    -0.86400
O620        O  0.53640188  0.42407564  0.50078284    -0.86000
Zr621      Zr  0.51421391  0.46203556  0.47036202     2.84300
O622        O  0.51727277  0.51034020  0.45022333    -1.07900
O623        O  0.49319481  0.46425454  0.51862170    -1.08700
C624        C  0.54307595  0.42163918  0.52878869     1.06800
C625        C  0.49130073  0.47454213  0.39734651     1.06700
C626        C  0.45476563  0.41316197  0.48465716     1.09700
C627        C  0.58749060  0.48241985  0.44921297     1.07500
H628        H  0.45363837  0.46938480  0.45357705     0.33000
O629        O  0.46587910  0.48185224  0.46657783    -1.28900
H630        H  0.56307578  0.48268447  0.50367036     0.32700
O631        O  0.54385599  0.49213727  0.50175663    -1.30600
O632        O  0.44767039  0.58156149  0.44650342    -0.86300
O633        O  0.51967244  0.52803310  0.59430258    -0.87800
O634        O  0.40164598  0.48792662  0.48199397    -0.86400
O635        O  0.54909458  0.55968617  0.42812032    -0.86500
O636        O  0.59189757  0.53369543  0.51351897    -0.86200
O637        O  0.44488942  0.46243941  0.56705191    -0.86000
O638        O  0.42764445  0.56215356  0.54920666    -0.86400
O639        O  0.51304946  0.60762042  0.52373802    -0.85800
O640        O  0.40898491  0.51446631  0.54017901    -0.86900
O641        O  0.55416827  0.59230052  0.49691983    -0.86000
O642        O  0.41670748  0.51631505  0.44146786    -0.86400
O643        O  0.49176603  0.47120012  0.58685279    -0.86200
O644        O  0.57620817  0.50578692  0.55418026    -0.85800
O645        O  0.50111669  0.55452046  0.40990601    -0.86200
O646        O  0.45473544  0.60095348  0.49414158    -0.86500
O647        O  0.49309587  0.56893749  0.57839548    -0.87900
Zr648      Zr  0.46933471  0.53074235  0.44693994     2.83100
Zr649      Zr  0.52294304  0.49504318  0.54972645     2.83500
Zr650      Zr  0.44545280  0.48443781  0.51533597     2.84100
Zr651      Zr  0.54789975  0.54044686  0.48089184     2.83400
Zr652      Zr  0.47854839  0.56396988  0.52589499     2.84200
O653        O  0.52685363  0.54366728  0.52936844    -1.08400
O654        O  0.44843330  0.53312668  0.49507940    -1.07900
C655        C  0.44610439  0.60284666  0.46649147     1.06700
C656        C  0.50733593  0.55392955  0.59859242     1.09300
C657        C  0.39686350  0.50136746  0.45666397     1.06900
C658        C  0.52898391  0.56155990  0.40697115     1.07300
C659        C  0.59652420  0.51921610  0.53832504     1.06800
C660        C  0.46455298  0.46176128  0.58873290     1.06400
C661        C  0.40670103  0.54149541  0.55013063     1.06800
C662        C  0.53908035  0.61209868  0.51163505     1.06300
H663        H  0.46600950  0.51735376  0.56560162     0.33000
O664        O  0.47515448  0.51562123  0.54594591    -1.29500
H665        H  0.50219403  0.58085876  0.46878995     0.33000
O666        O  0.50005445  0.56110429  0.47764911    -1.30900
O667        O  0.05902164  0.96321367  0.04546432    -0.86400
O668        O  0.00054981  0.03444865  0.90192130    -0.86500
O669        O  0.03636537  0.94345174  0.94780464    -0.88200
O670        O  0.08100610  0.02964421  0.96861279    -0.86900
O671        O  0.06779354  0.07037528  0.99752302    -0.86500
O672        O  0.98940823  0.92405918  0.95741035    -0.87900
O673        O  0.03956201  0.00388716  0.91496760    -0.86400
O674        O  0.07544999  0.96929599  0.99682171    -0.86000
Zr675      Zr  0.03778355  0.99493338  0.96858499     2.84300
O676        O  0.01772328  0.04332893  0.96602470    -1.07900
O677        O  0.00860800  0.96467726  0.00020324    -1.08700
C678        C  0.07884511  0.96068879  0.02419597     1.06800
C679        C  0.02415770  0.01887427  0.89576238     1.06700
C680        C  0.01633961  0.92211621  0.94768049     1.09700
C681        C  0.08638114  0.05548699  0.98119555     1.07500
H682        H  0.98999222  0.98171381  0.93071334     0.33000
O683        O  0.98904930  0.99121598  0.95025478    -1.28900
H684        H  0.05756419  0.01789430  0.02516919     0.32700
O685        O  0.03752125  0.01601426  0.01714232    -1.30600
O686        O  0.91725349  0.05998830  0.94856510    -0.86300
O687        O  0.97599427  0.98827434  0.09318046    -0.87800
O688        O  0.93764850  0.96024605  0.93040582    -0.86400
O689        O  0.01293599  0.10709092  0.98111165    -0.86500
O690        O  0.04113249  0.06335232  0.06564246    -0.86200
O691        O  0.96726090  0.91721155  0.01451079    -0.86000
O692        O  0.89482796  0.99689684  0.02599798    -0.86400
O693        O  0.93986302  0.08245179  0.04777019    -0.85800
O694        O  0.90859948  0.95498357  0.99904989    -0.86900
O695        O  0.98710164  0.10182444  0.03933394    -0.86000
O696        O  0.94256661  0.00810958  0.91119762    -0.86400
O697        O  0.99729111  0.93266788  0.05383750    -0.86200
O698        O  0.03293233  0.01612915  0.08514692    -0.85800
O699        O  0.98252289  0.09193919  0.94187489    -0.86200
O700        O  0.89948107  0.05243389  0.99651706    -0.86500
O701        O  0.93644261  0.01813340  0.08001083    -0.87900
Zr702      Zr  0.96868361  0.03937013  0.94713210     2.83100
Zr703      Zr  0.00810108  0.98542126  0.04837666     2.83500
Zr704      Zr  0.95962424  0.96115314  0.98181812     2.84100
Zr705      Zr  0.01683183  0.06392697  0.01493941     2.83400
Zr706      Zr  0.93858866  0.03058586  0.02709772     2.84200
O707        O  0.98738429  0.03361467  0.04627437    -1.08400
O708        O  0.93923686  0.00919118  0.97883960    -1.07900
C709        C  0.89646570  0.06093678  0.96897298     1.06700
C710        C  0.95162012  0.00260335  0.09901760     1.09300
C711        C  0.93498105  0.98015010  0.90922275     1.06900
C712        C  0.99828590  0.11172504  0.95645775     1.07300
C713        C  0.04278978  0.04330985  0.08687516     1.06800
C714        C  0.98290985  0.91249785  0.03859237     1.06400
C715        C  0.88968152  0.97072521  0.01410217     1.06800
C716        C  0.95987031  0.10389791  0.04846360     1.06300
H717        H  0.94682427  0.96939803  0.04346013     0.33000
O718        O  0.95873358  0.98200520  0.03029407    -1.29500
H719        H  0.95897442  0.07999832  0.99359767     0.33000
O720        O  0.96792804  0.06041133  0.99533863    -1.30900
C721        C  0.49327853  0.42986648  0.27198987     0.29900
C722        C  0.48005927  0.45323425  0.28853326    -0.36400
C723        C  0.48882938  0.45562758  0.31883482     0.15900
C724        C  0.50926644  0.43642301  0.33167062     0.21700
C725        C  0.52300138  0.41377440  0.31510830    -0.34600
C726        C  0.51420026  0.41136138  0.28508681     0.15800
O727        O  0.48547836  0.42057864  0.24473182    -0.26600
C728        C  0.50167206  0.39591857  0.24074273     0.05600
C729        C  0.52027250  0.38957610  0.26486391    -0.31500
O730        O  0.51257722  0.44090019  0.36062873    -0.23300
C731        C  0.49418618  0.46335394  0.36663178    -0.03300
C732        C  0.47890968  0.47374818  0.34151539    -0.17700
H733        H  0.46299772  0.46741247  0.27897629     0.20300
H734        H  0.53829815  0.39808741  0.32534930     0.18700
H735        H  0.53430649  0.37014035  0.26805041     0.18600
H736        H  0.46236830  0.49129969  0.34037240     0.14500
C737        C  0.46082747  0.39665882  0.70396720     0.29900
C738        C  0.44943673  0.39328728  0.67451219    -0.36400
C739        C  0.45205665  0.41853055  0.65567837     0.15900
C740        C  0.46547109  0.44503174  0.66523545     0.21700
C741        C  0.47690523  0.44839045  0.69467726    -0.34600
C742        C  0.47386454  0.42330273  0.71364164     0.15800
O743        O  0.46209725  0.37543770  0.72455137    -0.26600
C744        C  0.47593927  0.38851108  0.74794740     0.05600
C745        C  0.48363978  0.41848085  0.74252736    -0.31500
O746        O  0.46867510  0.46452804  0.64317944    -0.23300
C747        C  0.45685570  0.45073971  0.61908237    -0.03300
C748        C  0.44592670  0.42199541  0.62557534    -0.17700
H749        H  0.44000174  0.37212285  0.66656889     0.20300
H750        H  0.48828003  0.46883926  0.70194776     0.18700
H751        H  0.49604337  0.43385314  0.75700851     0.18600
H752        H  0.43783346  0.40503085  0.60987645     0.14500
C753        C  0.98881636  0.78751865  0.08408799     0.29900
C754        C  0.97316019  0.80369509  0.06201860    -0.36400
C755        C  0.98208630  0.83389818  0.05813933     0.15900
C756        C  0.00499932  0.84697947  0.07473028     0.21700
C757        C  0.02109024  0.83074351  0.09610347    -0.34600
C758        C  0.01189706  0.80086169  0.10024591     0.15800
O759        O  0.98222654  0.76012688  0.09384253    -0.26600
C760        C  0.00133197  0.75610957  0.11649511     0.05600
C761        C  0.02028146  0.78071453  0.12139808    -0.31500
O762        O  0.00792036  0.87594957  0.06974889    -0.23300
C763        C  0.98673718  0.88175938  0.04962171    -0.03300
C764        C  0.97010570  0.85639548  0.04114388    -0.17700
H765        H  0.95435338  0.79392053  0.04989673     0.20300
H766        H  0.03847384  0.84119739  0.10975552     0.18700
H767        H  0.03664029  0.78392387  0.13919028     0.18600
H768        H  0.95131310  0.85502078  0.02576396     0.14500
C769        C  0.94752619  0.16911228  0.09017307     0.29900
C770        C  0.94665550  0.18568420  0.11701148    -0.36400
C771        C  0.95599410  0.21584854  0.11511689     0.15900
C772        C  0.96507052  0.22935004  0.08868110     0.21700
C773        C  0.96489280  0.21304381  0.06150744    -0.34600
C774        C  0.95610228  0.18256492  0.06347264     0.15800
O775        O  0.94491451  0.13951106  0.08790371    -0.26600
C776        C  0.95166377  0.13390485  0.05931863     0.05600
C777        C  0.95864656  0.15983402  0.04308690    -0.31500
O778        O  0.97601285  0.25692797  0.09303533    -0.23300
C779        C  0.97406319  0.26085928  0.12273655    -0.03300
C780        C  0.96135551  0.23607093  0.13732066    -0.17700
H781        H  0.94135056  0.17520289  0.13834769     0.20300
H782        H  0.97312469  0.22276010  0.04074736     0.18700
H783        H  0.96745408  0.16128982  0.02041942     0.18600
H784        H  0.95733258  0.23272755  0.16108946     0.14500
C785        C  0.51878593  0.60118543  0.28138418     0.29900
C786        C  0.51581436  0.57470579  0.29846653    -0.36400
C787        C  0.52782548  0.57574964  0.32787156     0.15900
C788        C  0.54179090  0.60100506  0.33988062     0.21700
C789        C  0.54524836  0.62721179  0.32258103    -0.34600
C790        C  0.53318668  0.62619742  0.29330596     0.15800
O791        O  0.50702503  0.60633648  0.25440563    -0.26600
C792        C  0.51386420  0.63518233  0.24919009     0.05600
C793        C  0.53042733  0.64831975  0.27257606    -0.31500
O794        O  0.54731152  0.59849999  0.36916765    -0.23300
C795        C  0.53704148  0.57106633  0.37602429    -0.03300
C796        C  0.52498345  0.55599279  0.35103508    -0.17700
H797        H  0.50360277  0.55518579  0.29006789     0.20300
H798        H  0.55507876  0.64762959  0.33189126     0.18700
H799        H  0.53862790  0.67127729  0.27455763     0.18600
H800        H  0.51271470  0.53480375  0.35082401     0.14500
C801        C  0.49966710  0.62790993  0.70917937     0.29900
C802        C  0.49909242  0.63047904  0.67788125    -0.36400
C803        C  0.50429243  0.60407053  0.66168290     0.15900
C804        C  0.50965496  0.57664368  0.67500093     0.21700
C805        C  0.51034271  0.57408120  0.70669392    -0.34600
C806        C  0.50511018  0.60080530  0.72312407     0.15800
O807        O  0.49571596  0.65011422  0.72831134    -0.26600
C808        C  0.49858322  0.63744088  0.75519047     0.05600
C809        C  0.50439556  0.60667093  0.75345581    -0.31500
O810        O  0.51268854  0.55472533  0.65478622    -0.23300
C811        C  0.50914473  0.56871358  0.62843634    -0.03300
C812        C  0.50406773  0.59933260  0.63164517    -0.17700
H813        H  0.49472397  0.65168049  0.66685917     0.20300
H814        H  0.51440046  0.55283626  0.71773095     0.18700
H815        H  0.50824291  0.59111036  0.77169398     0.18600
H816        H  0.49980301  0.61569627  0.61419470     0.14500
C817        C  0.98367023  0.17620416  0.91543950     0.29900
C818        C  0.97020976  0.19188013  0.89214222    -0.36400
C819        C  0.97737101  0.22235546  0.89050327     0.15900
C820        C  0.99629423  0.23698997  0.91052157     0.21700
C821        C  0.00934869  0.22125456  0.93466579    -0.34600
C822        C  0.00241264  0.19020559  0.93609839     0.15800
O823        O  0.98078059  0.14721808  0.91979915    -0.26600
C824        C  0.99772167  0.14202717  0.94367603     0.05600
C825        C  0.01186460  0.16792354  0.95501633    -0.31500
O826        O  0.00188300  0.26516666  0.90234089    -0.23300
C827        C  0.98626119  0.26799489  0.87686954    -0.03300
C828        C  0.97047481  0.24215364  0.86881872    -0.17700
H829        H  0.95599912  0.18074843  0.87562426     0.20300
H830        H  0.02467092  0.23207694  0.95035414     0.18700
H831        H  0.02665513  0.16998907  0.97426987     0.18600
H832        H  0.95718094  0.23795876  0.84878501     0.14500
C833        C  0.01777562  0.84569194  0.93313859     0.29900
C834        C  0.00653432  0.81630862  0.93623229    -0.36400
C835        C  0.01246857  0.79669908  0.91239777     0.15900
C836        C  0.02842644  0.80557451  0.88729257     0.21700
C837        C  0.04052539  0.83478327  0.88462143    -0.34600
C838        C  0.03450845  0.85447850  0.90849276     0.15800
O839        O  0.01103592  0.86838974  0.95061558    -0.26600
C840        C  0.02388060  0.89201142  0.93744447     0.05600
C841        C  0.03915591  0.88487063  0.91120407    -0.31500
O842        O  0.02799860  0.78489985  0.86608472    -0.23300
C843        C  0.01193691  0.76240637  0.87786481    -0.03300
C844        C  0.00188994  0.76828975  0.90679039    -0.17700
H845        H  0.99247729  0.80979729  0.95500440     0.20300
H846        H  0.05212657  0.84213168  0.86451603     0.18700
H847        H  0.04940516  0.90007262  0.89513252     0.18600
H848        H  0.98705258  0.75470747  0.92056265     0.14500
C849        C  0.12422862  0.40192249  0.90381682     0.29900
C850        C  0.11781635  0.37819818  0.88377542    -0.36400
C851        C  0.08741003  0.37088376  0.87996208     0.15900
C852        C  0.06491085  0.38524454  0.89550503     0.21700
C853        C  0.07133023  0.40887278  0.91561592    -0.34600
C854        C  0.10163578  0.41675397  0.91873484     0.15800
O855        O  0.15099656  0.41315151  0.91017134    -0.26600
C856        C  0.14534011  0.43562432  0.92917405     0.05600
C857        C  0.11502639  0.43898683  0.93515152    -0.31500
O858        O  0.03801283  0.37538440  0.88778484    -0.23300
C859        C  0.04335422  0.35485136  0.86665042    -0.03300
C860        C  0.07364505  0.35107565  0.86083976    -0.17700
H861        H  0.13522719  0.36681226  0.87140448     0.20300
H862        H  0.05387003  0.42083365  0.92735688     0.18700
H863        H  0.10445260  0.45523250  0.94980194     0.18600
H864        H  0.08392035  0.33624792  0.84455607     0.14500
C865        C  0.08378761  0.36751054  0.10877942     0.29900
C866        C  0.11333327  0.37846155  0.11028648    -0.36400
C867        C  0.12188820  0.39895966  0.08789798     0.15900
C868        C  0.10274994  0.40826363  0.06546493     0.21700
C869        C  0.07321960  0.39682218  0.06361329    -0.34600
C870        C  0.06463684  0.37608041  0.08604508     0.15800
O871        O  0.07061222  0.35013392  0.12891128    -0.26600
C872        C  0.04260943  0.34702771  0.11897577     0.05600
C873        C  0.03765092  0.36243812  0.09212764    -0.31500
O874        O  0.11538796  0.42847186  0.04749758    -0.23300
C875        C  0.14301362  0.43190083  0.05856505    -0.03300
C876        C  0.14823251  0.41397516  0.08361172    -0.17700
H877        H  0.12840230  0.37203770  0.12819372     0.20300
H878        H  0.05783677  0.40407208  0.04632140     0.18700
H879        H  0.01675969  0.36499161  0.08008166     0.18600
H880        H  0.16849780  0.41244406  0.09690192     0.14500
C881        C  0.08645667  0.64385649  0.11956266     0.29900
C882        C  0.11683083  0.63645791  0.11791621    -0.36400
C883        C  0.12450163  0.61541077  0.09566845     0.15900
C884        C  0.10376618  0.60227131  0.07644649     0.21700
C885        C  0.07335706  0.60976505  0.07801446    -0.34600
C886        C  0.06573394  0.63106362  0.10009538     0.15800
O887        O  0.07437220  0.66324186  0.13845010    -0.26600
C888        C  0.04559730  0.66316427  0.13066062     0.05600
C889        C  0.03894869  0.64354000  0.10702594    -0.31500
O890        O  0.11603317  0.58308924  0.05740525    -0.23300
C891        C  0.14503414  0.58409427  0.06450200    -0.03300
C892        C  0.15151649  0.60388838  0.08808558    -0.17700
H893        H  0.13337699  0.64655169  0.13280791     0.20300
H894        H  0.05684218  0.59988550  0.06294388     0.18700
H895        H  0.01748993  0.63892903  0.09662262     0.18600
H896        H  0.17305651  0.60897516  0.09822747     0.14500
C897        C  0.08381614  0.64124521  0.87459469     0.29900
C898        C  0.11085525  0.62606517  0.87006066    -0.36400
C899        C  0.12271533  0.61131297  0.89524441     0.15900
C900        C  0.10859989  0.61108155  0.92286550     0.21700
C901        C  0.08173829  0.62661112  0.92750708    -0.34600
C902        C  0.07012744  0.64172382  0.90240777     0.15800
O903        O  0.06882598  0.65630665  0.85407769    -0.26600
C904        C  0.04527630  0.66688518  0.86888380     0.05600
C905        C  0.04499342  0.65857714  0.89915905    -0.31500
O906        O  0.12328523  0.59537883  0.94316029    -0.23300
C907        C  0.14742960  0.58581662  0.92857680    -0.03300
C908        C  0.14833605  0.59516012  0.89866528    -0.17700
H909        H  0.12189823  0.62583017  0.84838695     0.20300
H910        H  0.07068208  0.62688667  0.94918046     0.18700
H911        H  0.02862897  0.66377517  0.91627721     0.18600
H912        H  0.16518555  0.59041710  0.88186460     0.14500
C913        C  0.36600336  0.41246576  0.89801493     0.29900
C914        C  0.37319724  0.38683406  0.88105906    -0.36400
C915        C  0.40189420  0.38682736  0.86826777     0.15900
C916        C  0.42200517  0.41047497  0.87170564     0.21700
C917        C  0.41485109  0.43598233  0.88880535    -0.34600
C918        C  0.38631347  0.43588931  0.90181978     0.15800
O919        O  0.34032625  0.41752031  0.91158493    -0.26600
C920        C  0.34443552  0.44435537  0.92447605     0.05600
C921        C  0.37262658  0.45684271  0.91924255    -0.31500
O922        O  0.44743209  0.40594103  0.85744749    -0.23300
C923        C  0.44373466  0.37889496  0.84495226    -0.03300
C924        C  0.41578607  0.36593649  0.85090761    -0.17700
H925        H  0.35751750  0.36827453  0.87799786     0.20300
H926        H  0.43043601  0.45463513  0.89170466     0.18700
H927        H  0.38147836  0.47842819  0.92673758     0.18600
H928        H  0.40684091  0.34447618  0.84318390     0.14500
C929        C  0.42484378  0.61041950  0.87432458     0.29900
C930        C  0.41856728  0.58599724  0.89345296    -0.36400
C931        C  0.38904776  0.58395507  0.90417391     0.15900
C932        C  0.36722975  0.60419548  0.89615236     0.21700
C933        C  0.37356569  0.62859596  0.87737357    -0.34600
C934        C  0.40305048  0.63096688  0.86717524     0.15800
O935        O  0.45084159  0.61711098  0.86173191    -0.26600
C936        C  0.44549272  0.64243797  0.84673719     0.05600
C937        C  0.41620687  0.65209617  0.84950854    -0.31500
O938        O  0.34114586  0.59810403  0.90847778    -0.23300
C939        C  0.34630571  0.57387730  0.92497742    -0.03300
C940        C  0.37570324  0.56399216  0.92327044    -0.17700
H941        H  0.43548096  0.56993194  0.89971327     0.20300
H942        H  0.35670427  0.64479488  0.87134236     0.18700
H943        H  0.40602962  0.67178822  0.83977210     0.18600
H944        H  0.38563847  0.54487239  0.93435032     0.14500
C945        C  0.36597404  0.60101341  0.10975530     0.29900
C946        C  0.37191850  0.62209192  0.13274318    -0.36400
C947        C  0.40165120  0.62405734  0.14295330     0.15900
C948        C  0.42419031  0.60639756  0.13157307     0.21700
C949        C  0.41833023  0.58543914  0.10828736    -0.34600
C950        C  0.38849170  0.58359620  0.09792086     0.15800
O951        O  0.33963730  0.59548400  0.09705141    -0.26600
C952        C  0.34519995  0.57432092  0.07651691     0.05600
C953        C  0.37530730  0.56613295  0.07605800    -0.31500
O954        O  0.45055692  0.61281882  0.14392953    -0.23300
C955        C  0.44478677  0.63505173  0.16330960    -0.03300
C956        C  0.41469630  0.64285722  0.16357215    -0.17700
H957        H  0.35456276  0.63621993  0.14189186     0.20300
H958        H  0.43583580  0.57177249  0.09870600     0.18700
H959        H  0.38585301  0.54943950  0.06190533     0.18600
H960        H  0.40415202  0.66062180  0.17633629     0.14500
C961        C  0.38183414  0.42824546  0.09092666     0.29900
C962        C  0.41226856  0.42839506  0.09852737    -0.36400
C963        C  0.42087467  0.40741379  0.12020649     0.15900
C964        C  0.40110282  0.38704353  0.13296160     0.21700
C965        C  0.37053721  0.38700228  0.12549249    -0.34600
C966        C  0.36176422  0.40856180  0.10429557     0.15800
O967        O  0.36894845  0.44653346  0.07174958    -0.26600
C968        C  0.34015100  0.43878584  0.07294762     0.05600
C969        C  0.33427943  0.41530925  0.09294059    -0.31500
O970        O  0.41420251  0.36929523  0.15259931    -0.23300
C971        C  0.44253926  0.37894353  0.15284509    -0.03300
C972        C  0.44795928  0.40260167  0.13314256    -0.17700
H973        H  0.42804662  0.44414368  0.08859369     0.20300
H974        H  0.35468484  0.37157283  0.13579359     0.18700
H975        H  0.31292989  0.40490937  0.09840210     0.18600
H976        H  0.46885764  0.41425129  0.12862048     0.14500
C977        C  0.58345426  0.38748915  0.12633195     0.29900
C978        C  0.61213372  0.38500801  0.11376815    -0.36400
C979        C  0.62184016  0.40947066  0.09626606     0.15900
C980        C  0.60444912  0.43446186  0.09123578     0.21700
C981        C  0.57600481  0.43704444  0.10403661    -0.34600
C982        C  0.56641079  0.41274680  0.12166696     0.15800
O983        O  0.56962533  0.36732409  0.14324480    -0.26600
C984        C  0.54350513  0.38002658  0.14960414     0.05600
C985        C  0.54040648  0.40831542  0.13680546    -0.31500
O986        O  0.61773592  0.45450273  0.07386553    -0.23300
C987        C  0.64407867  0.44229266  0.06792797    -0.03300
C988        C  0.64797775  0.41438587  0.08134162    -0.17700
H989        H  0.62587144  0.36543250  0.11733876     0.20300
H990        H  0.56227923  0.45662392  0.10046967     0.18700
H991        H  0.52166463  0.42341268  0.13799480     0.18600
H992        H  0.66725304  0.39989976  0.08016295     0.14500
C993        C  0.62344367  0.60693909  0.10102745     0.29900
C994        C  0.61729056  0.63089656  0.12063702    -0.36400
C995        C  0.58815102  0.63158222  0.13221880     0.15900
C996        C  0.56662005  0.61000835  0.12537726     0.21700
C997        C  0.57276792  0.58611194  0.10569796    -0.34600
C998        C  0.60178535  0.58565139  0.09374172     0.15800
O999        O  0.64924951  0.60171951  0.08776819    -0.26600
C1000       C  0.64395710  0.57694335  0.07153342     0.05600
C1001       C  0.61476729  0.56602634  0.07427090    -0.31500
O1002       O  0.54080675  0.61518516  0.13867905    -0.23300
C1003       C  0.54585662  0.64057348  0.15390825    -0.03300
C1004       C  0.57490786  0.65175936  0.15078973    -0.17700
H1005       H  0.63398655  0.64787586  0.12634168     0.20300
H1006       H  0.55604778  0.56918116  0.09995739     0.18700
H1007       H  0.60481088  0.54615605  0.06394805     0.18600
H1008       H  0.58474417  0.67190300  0.16070161     0.14500
C1009       C  0.58738307  0.63280382  0.86592146     0.29900
C1010       C  0.61729858  0.63378644  0.87516145    -0.36400
C1011       C  0.62597820  0.61070670  0.89440308     0.15900
C1012       C  0.60654485  0.58831225  0.90405991     0.21700
C1013       C  0.57676441  0.58697254  0.89433745    -0.34600
C1014       C  0.56812489  0.60995768  0.87486737     0.15800
O1015       O  0.57411217  0.65296674  0.84918349    -0.26600
C1016       C  0.54616009  0.64266400  0.84705413     0.05600
C1017       C  0.54110471  0.61588084  0.86235940    -0.31500
O1018       O  0.61931155  0.56949198  0.92267460    -0.23300
C1019       C  0.64723648  0.57989828  0.92461080    -0.03300
C1020       C  0.65277922  0.60540190  0.90749015    -0.17700
H1021       H  0.63257817  0.65154722  0.86822910     0.20300
H1022       H  0.56136363  0.56950838  0.90172939     0.18700
H1023       H  0.52032071  0.60337060  0.86495582     0.18600
H1024       H  0.67346598  0.61815034  0.90517959     0.14500
C1025       C  0.60576898  0.43782398  0.89530081     0.29900
C1026       C  0.57703748  0.44080615  0.88283725    -0.36400
C1027       C  0.56789961  0.41818543  0.86250325     0.15900
C1028       C  0.58568322  0.39405325  0.85527132     0.21700
C1029       C  0.61460924  0.39126067  0.86737531    -0.34600
C1030       C  0.62385975  0.41409078  0.88744361     0.15800
O1031       O  0.61871559  0.45640170  0.91478599    -0.26600
C1032       C  0.64561384  0.44464457  0.91926220     0.05600
C1033       C  0.65008229  0.41830917  0.90276517    -0.31500
O1034       O  0.57190097  0.37449948  0.83743535    -0.23300
C1035       C  0.54501209  0.38637064  0.83279476    -0.03300
C1036       C  0.54137953  0.41372009  0.84769810    -0.17700
H1037       H  0.56269716  0.45935866  0.88878753     0.20300
H1038       H  0.62875839  0.37242775  0.86181348     0.18700
H1039       H  0.66981067  0.40441031  0.90211182     0.18600
H1040       H  0.52154658  0.42739321  0.84897809     0.14500
C1041       C  0.86283477  0.40628825  0.09208306     0.29900
C1042       C  0.86923634  0.38626457  0.11549933    -0.36400
C1043       C  0.89874968  0.37595198  0.11682787     0.15900
C1044       C  0.92041124  0.38418096  0.09619232     0.21700
C1045       C  0.91400326  0.40423123  0.07274584    -0.34600
C1046       C  0.88461081  0.41500782  0.07176592     0.15800
O1047       O  0.83687689  0.41918491  0.08694789    -0.26600
C1048       C  0.84222401  0.43667980  0.06324356     0.05600
C1049       C  0.87150885  0.43494923  0.05283805    -0.31500
O1050       O  0.94655942  0.37183290  0.10189281    -0.23300
C1051       C  0.94158343  0.35587071  0.12674757    -0.03300
C1052       C  0.91228837  0.35764704  0.13702276    -0.17700
H1053       H  0.85250011  0.37953968  0.13182129     0.20300
H1054       H  0.93084063  0.41127810  0.05666169     0.18700
H1055       H  0.88155682  0.44652638  0.03390031     0.18600
H1056       H  0.90244859  0.34694779  0.15656480     0.14500
C1057       C  0.91845819  0.38440824  0.89645783     0.29900
C1058       C  0.91122831  0.40115566  0.92217078    -0.36400
C1059       C  0.88388030  0.41615643  0.92121479     0.15900
C1060       C  0.86459012  0.41435985  0.89690873     0.21700
C1061       C  0.87175597  0.39753347  0.87118734    -0.34600
C1062       C  0.89935642  0.38287520  0.87200321     0.15800
O1063       O  0.94354773  0.36976123  0.89195710    -0.26600
C1064       C  0.94062159  0.35891014  0.86414137     0.05600
C1065       C  0.91339747  0.36613661  0.85077479    -0.31500
O1066       O  0.83991785  0.42972614  0.90123565    -0.23300
C1067       C  0.84380017  0.44182130  0.92844637    -0.03300
C1068       C  0.87073065  0.43425055  0.94190236    -0.17700
H1069       H  0.92610799  0.40278290  0.94138759     0.20300
H1070       H  0.85704557  0.39624459  0.85180532     0.18700
H1071       H  0.90522532  0.36036834  0.82850277     0.18600
H1072       H  0.87891236  0.44039709  0.96409227     0.14500
C1073       C  0.88705446  0.60765911  0.92209418     0.29900
C1074       C  0.91656005  0.61903121  0.92411557    -0.36400
C1075       C  0.92489211  0.64063098  0.90249985     0.15900
C1076       C  0.90568617  0.64986296  0.88009881     0.21700
C1077       C  0.87624746  0.63858433  0.87811448    -0.34600
C1078       C  0.86776583  0.61747755  0.90001488     0.15800
O1079       O  0.87415168  0.58813296  0.94053669    -0.26600
C1080       C  0.84613965  0.58568580  0.93029220     0.05600
C1081       C  0.84097709  0.60341870  0.90508183    -0.31500
O1082       O  0.91819193  0.66968462  0.86185742    -0.23300
C1083       C  0.94568872  0.67376731  0.87291609    -0.03300
C1084       C  0.95113604  0.65621229  0.89823918    -0.17700
H1085       H  0.93180830  0.61185321  0.94155909     0.20300
H1086       H  0.86090673  0.64600251  0.86085388     0.18700
H1087       H  0.82029802  0.60599181  0.89265928     0.18600
H1088       H  0.97169640  0.65435697  0.91096790     0.14500
C1089       C  0.88260519  0.61034968  0.07356941     0.29900
C1090       C  0.91219956  0.62109084  0.07181918    -0.36400
C1091       C  0.92221053  0.63862285  0.09626802     0.15900
C1092       C  0.90461359  0.64464435  0.12102648     0.21700
C1093       C  0.87491282  0.63415052  0.12262767    -0.34600
C1094       C  0.86465318  0.61721028  0.09787297     0.15800
O1095       O  0.86886558  0.59289242  0.05368134    -0.26600
C1096       C  0.84168872  0.58881047  0.06528606     0.05600
C1097       C  0.83763235  0.60374735  0.09252539    -0.31500
O1098       O  0.91865125  0.66139442  0.14134306    -0.23300
C1099       C  0.94542406  0.66665076  0.12917308    -0.03300
C1100       C  0.94883076  0.65298609  0.10113692    -0.17700
H1101       H  0.92640170  0.61616931  0.05273657     0.20300
H1102       H  0.86075754  0.63894897  0.14176922     0.18700
H1103       H  0.81797246  0.60379713  0.10674387     0.18600
H1104       H  0.96797950  0.65347755  0.08632018     0.14500
C1105       C  0.07293636  0.02031524  0.77147540     0.29900
C1106       C  0.05261692  0.03688074  0.78901427    -0.36400
C1107       C  0.04618163  0.02526935  0.81777240     0.15900
C1108       C  0.05889906  0.99914601  0.82823961     0.21700
C1109       C  0.07850959  0.98230160  0.81057255    -0.34600
C1110       C  0.08501400  0.99393052  0.78211162     0.15800
O1111       O  0.08534932  0.02898550  0.74586521    -0.26600
C1112       C  0.10552138  0.00785079  0.74030517     0.05600
C1113       C  0.10604593  0.98540027  0.76192341    -0.31500
O1114       O  0.05221974  0.99366245  0.85648609    -0.23300
C1115       C  0.03469563  0.01630112  0.86448935    -0.03300
C1116       C  0.02984381  0.03665291  0.84123382    -0.17700
H1117       H  0.04377962  0.05813777  0.78146085     0.20300
H1118       H  0.08929091  0.96237646  0.81912460     0.18700
H1119       H  0.12155528  0.96695625  0.76378798     0.18600
H1120       H  0.01747020  0.05743369  0.84199696     0.14500
C1121       C  0.11131061  0.04024442  0.19987451     0.29900
C1122       C  0.11505373  0.05123054  0.17037344    -0.36400
C1123       C  0.08929974  0.05133801  0.15215148     0.15900
C1124       C  0.06192302  0.04112709  0.16246158     0.21700
C1125       C  0.05821197  0.03009600  0.19188826    -0.34600
C1126       C  0.08388165  0.03013723  0.21011927     0.15800
O1127       O  0.13253088  0.03733402  0.22024617    -0.26600
C1128       C  0.11866726  0.02533080  0.24403031     0.05600
C1129       C  0.08822960  0.02034703  0.23901499    -0.31500
O1130       O  0.04152674  0.04029792  0.14108801    -0.23300
C1131       C  0.05557305  0.05046565  0.11663469    -0.03300
C1132       C  0.08554562  0.05769196  0.12214148    -0.17700
H1133       H  0.13670373  0.05849158  0.16201760     0.20300
H1134       H  0.03691700  0.02128079  0.19970561     0.18700
H1135       H  0.07190673  0.01035083  0.25406079     0.18600
H1136       H  0.10268807  0.06347840  0.10588636     0.14500
C1137       C  0.19854889  0.52284505  0.23263172     0.29900
C1138       C  0.20129585  0.54044605  0.20657302    -0.36400
C1139       C  0.21375991  0.52609871  0.18138677     0.15900
C1140       C  0.22259655  0.49641233  0.18166518     0.21700
C1141       C  0.22006382  0.47893296  0.20775489    -0.34600
C1142       C  0.20782323  0.49331703  0.23296775     0.15800
O1143       O  0.18847617  0.53187991  0.25906996    -0.26600
C1144       C  0.19136784  0.50779487  0.27656385     0.05600
C1145       C  0.20339011  0.48322215  0.26145987    -0.31500
O1146       O  0.23250782  0.48717747  0.15526137    -0.23300
C1147       C  0.23030652  0.51136501  0.13790265    -0.03300
C1148       C  0.21893416  0.53629233  0.15301156    -0.17700
H1149       H  0.19433178  0.56369857  0.20600324     0.20300
H1150       H  0.22713246  0.45571988  0.20835585     0.18700
H1151       H  0.20897041  0.46141147  0.27053473     0.18600
H1152       H  0.21407317  0.55833682  0.14403427     0.14500
C1153       C  0.33196559  0.51303785  0.41460505     0.29900
C1154       C  0.31590341  0.52585699  0.39115271    -0.36400
C1155       C  0.28548947  0.51890075  0.39011566     0.15900
C1156       C  0.27123788  0.50039221  0.41058241     0.21700
C1157       C  0.28747149  0.48747740  0.43457695    -0.34600
C1158       C  0.31844328  0.49457025  0.43564948     0.15800
O1159       O  0.36074792  0.51697846  0.41920296    -0.26600
C1160       C  0.36643085  0.50096974  0.44363998     0.05600
C1161       C  0.34092832  0.48634239  0.45501364    -0.31500
O1162       O  0.24271455  0.49558613  0.40330213    -0.23300
C1163       C  0.23934920  0.51126066  0.37788196    -0.03300
C1164       C  0.26514285  0.52639106  0.36914012    -0.17700
H1165       H  0.32658016  0.54002277  0.37443802     0.20300
H1166       H  0.27693764  0.47262608  0.45078663     0.18700
H1167       H  0.33919171  0.47214309  0.47469968     0.18600
H1168       H  0.26883814  0.53980516  0.34915866     0.14500
C1169       C  0.78727073  0.52268275  0.23306463     0.29900
C1170       C  0.78347488  0.54090255  0.20760304    -0.36400
C1171       C  0.77446274  0.52594397  0.18111613     0.15900
C1172       C  0.76974795  0.49517676  0.17968956     0.21700
C1173       C  0.77339083  0.47702085  0.20514242    -0.34600
C1174       C  0.78219794  0.49198264  0.23164324     0.15800
O1175       O  0.79475562  0.53194340  0.26039308    -0.26600
C1176       C  0.79446363  0.50682015  0.27670189     0.05600
C1177       C  0.78666415  0.48132830  0.25992520    -0.31500
O1178       O  0.76150118  0.48588050  0.15264201    -0.23300
C1179       C  0.76058597  0.51105864  0.13658276    -0.03300
C1180       C  0.76852202  0.53668655  0.15310513    -0.17700
H1181       H  0.78700786  0.56505553  0.20845041     0.20300
H1182       H  0.76940215  0.45293354  0.20439464     0.18700
H1183       H  0.78391615  0.45840211  0.26773420     0.18600
H1184       H  0.76994724  0.55979196  0.14548760     0.14500
C1185       C  0.66355736  0.48006158  0.43360250     0.29900
C1186       C  0.69320439  0.49071926  0.43667386    -0.36400
C1187       C  0.71131134  0.48824528  0.41101125     0.15900
C1188       C  0.70076405  0.47611695  0.38431353     0.21700
C1189       C  0.67146922  0.46464760  0.38154418    -0.34600
C1190       C  0.65340701  0.46700486  0.40715947     0.15800
O1191       O  0.64169332  0.48469175  0.45281709    -0.26600
C1192       C  0.61734824  0.47397703  0.43882438     0.05600
C1193       C  0.62331493  0.46228414  0.41045398    -0.31500
O1194       O  0.72038702  0.47838606  0.36240746    -0.23300
C1195       C  0.74408650  0.49180903  0.37511761    -0.03300
C1196       C  0.73985060  0.49834589  0.40548612    -0.17700
H1197       H  0.70103451  0.50177172  0.45705090     0.20300
H1198       H  0.66287808  0.45597245  0.36036439     0.18700
H1199       H  0.60738511  0.45505060  0.39341878     0.18600
H1200       H  0.75494592  0.51002368  0.42078421     0.14500
C1201       C  0.89521959  0.98715285  0.78388603     0.29900
C1202       C  0.92221215  0.98591373  0.80028911    -0.36400
C1203       C  0.91971325  0.97748305  0.83081693     0.15900
C1204       C  0.89263626  0.97077873  0.84434184     0.21700
C1205       C  0.86589375  0.97193530  0.82799792    -0.34600
C1206       C  0.86839323  0.98038093  0.79770727     0.15800
O1207       O  0.89169502  0.99539704  0.75532789    -0.26600
C1208       C  0.86208016  0.99392352  0.75101443     0.05600
C1209       C  0.84681633  0.98466083  0.77685936    -0.31500
O1210       O  0.89486435  0.96721072  0.87379890    -0.23300
C1211       C  0.92384661  0.97128604  0.87936761    -0.03300
C1212       C  0.94032475  0.97773101  0.85344124    -0.17700
H1213       H  0.94350732  0.99206809  0.79031880     0.20300
H1214       H  0.84440229  0.96776240  0.83850473     0.18700
H1215       H  0.82306860  0.98132979  0.78028974     0.18600
H1216       H  0.96351707  0.98501838  0.85209136     0.14500
C1217       C  0.90341613  0.99803040  0.22353985     0.29900
C1218       C  0.92705874  0.98497657  0.20718054    -0.36400
C1219       C  0.92995435  0.99432794  0.17697089     0.15900
C1220       C  0.91085831  0.01497254  0.16430086     0.21700
C1221       C  0.88785693  0.02810043  0.18054874    -0.34600
C1222       C  0.88497540  0.01883855  0.21022030     0.15800
O1223       O  0.89463768  0.99138192  0.25122952    -0.26600
C1224       C  0.87042572  0.00827949  0.25503151     0.05600
C1225       C  0.86366945  0.02581103  0.23034214    -0.31500
O1226       O  0.91625537  0.01993043  0.13582962    -0.23300
C1227       C  0.93930624  0.00252319  0.12959718    -0.03300
C1228       C  0.94905886  0.98595067  0.15433785    -0.17700
H1229       H  0.94150223  0.96823189  0.21695099     0.20300
H1230       H  0.87262404  0.04390178  0.17040916     0.18700
H1231       H  0.84477707  0.04050184  0.22714728     0.18600
H1232       H  0.96712195  0.96997670  0.15535206     0.14500
C1233       C  0.22986024  0.52467167  0.81212739     0.29900
C1234       C  0.22685455  0.54236404  0.78618988    -0.36400
C1235       C  0.21576617  0.52742191  0.76046149     0.15900
C1236       C  0.20837137  0.49714249  0.76010715     0.21700
C1237       C  0.21203866  0.47933764  0.78583541    -0.34600
C1238       C  0.22295212  0.49428113  0.81159924     0.15800
O1239       O  0.23795310  0.53428100  0.83919011    -0.26600
C1240       C  0.23654165  0.50961135  0.85611349     0.05600
C1241       C  0.22745336  0.48407627  0.84005608    -0.31500
O1242       O  0.19811506  0.48788612  0.73366770    -0.23300
C1243       C  0.19883452  0.51260406  0.71682092    -0.03300
C1244       C  0.20978846  0.53781013  0.73235597    -0.17700
H1245       H  0.23214663  0.56622387  0.78623461     0.20300
H1246       H  0.20628777  0.45558601  0.78591919     0.18700
H1247       H  0.22346685  0.46153084  0.84846056     0.18600
H1248       H  0.21354942  0.56032848  0.72378399     0.14500
C1249       C  0.28920649  0.54632948  0.61064574     0.29900
C1250       C  0.31789302  0.55947962  0.61430276    -0.36400
C1251       C  0.33817387  0.55498779  0.59058714     0.15900
C1252       C  0.33035538  0.53863677  0.56522201     0.21700
C1253       C  0.30159515  0.52601474  0.56135159    -0.34600
C1254       C  0.28138420  0.53053774  0.58494529     0.15800
O1255       O  0.26804899  0.54507379  0.63118786    -0.26600
C1256       C  0.24620150  0.52858405  0.61848663     0.05600
C1257       C  0.25312216  0.51911042  0.58949481    -0.31500
O1258       O  0.35327389  0.53398372  0.54746245    -0.23300
C1259       C  0.37628624  0.54776965  0.56103281    -0.03300
C1260       C  0.36830038  0.56142650  0.58814763    -0.17700
H1261       H  0.32436636  0.57106930  0.63484949     0.20300
H1262       H  0.29589793  0.51228862  0.54190926     0.18700
H1263       H  0.24023331  0.50425685  0.57490031     0.18600
H1264       H  0.38285114  0.57193335  0.60476245     0.14500
C1265       C  0.78753379  0.52217706  0.76205242     0.29900
C1266       C  0.78651700  0.53970704  0.78824023    -0.36400
C1267       C  0.77383047  0.52577474  0.81340151     0.15900
C1268       C  0.76324984  0.49641521  0.81308556     0.21700
C1269       C  0.76408481  0.47884750  0.78677116    -0.34600
C1270       C  0.77650041  0.49297544  0.76144077     0.15800
O1271       O  0.79808339  0.53096060  0.73584876    -0.26600
C1272       C  0.79368642  0.50712195  0.71813884     0.05600
C1273       C  0.78029552  0.48283062  0.73282011    -0.31500
O1274       O  0.75325789  0.48778701  0.83962784    -0.23300
C1275       C  0.75711714  0.51215137  0.85685789    -0.03300
C1276       C  0.76979936  0.53641977  0.84173396    -0.17700
H1277       H  0.79496827  0.56265258  0.78893222     0.20300
H1278       H  0.75571913  0.45586119  0.78609860     0.18700
H1279       H  0.77391493  0.46110859  0.72349136     0.18600
H1280       H  0.77607426  0.55835875  0.85061550     0.14500
C1281       C  0.66201940  0.49729156  0.57457040     0.29900
C1282       C  0.67814504  0.48126296  0.59601961    -0.36400
C1283       C  0.70851566  0.48856231  0.59839536     0.15900
C1284       C  0.72242787  0.51001570  0.58067199     0.21700
C1285       C  0.70630395  0.52561045  0.55844623    -0.34600
C1286       C  0.67553856  0.51851457  0.55629613     0.15800
O1287       O  0.63296801  0.49538649  0.57056494    -0.26600
C1288       C  0.62732811  0.51551938  0.54935062     0.05600
C1289       C  0.65302957  0.53057194  0.53928868    -0.31500
O1290       O  0.75000658  0.51618046  0.58991491    -0.23300
C1291       C  0.75340573  0.49857108  0.61386790    -0.03300
C1292       C  0.72849432  0.48057100  0.61976977    -0.17700
H1293       H  0.66733640  0.46538017  0.61104279     0.20300
H1294       H  0.71659843  0.54321088  0.54506279     0.18700
H1295       H  0.65474982  0.54811540  0.52250953     0.18600
H1296       H  0.72466156  0.46589108  0.63883036     0.14500
C1297       C  0.00822518  0.28244473  0.31257362     0.29900
C1298       C  0.02594384  0.28855662  0.28708754    -0.36400
C1299       C  0.01079829  0.29959901  0.26170396     0.15900
C1300       C  0.98034570  0.30422620  0.26134910     0.21700
C1301       C  0.96259879  0.29779093  0.28666187    -0.34600
C1302       C  0.97770546  0.28675922  0.31200670     0.15800
O1303       O  0.01778136  0.27323572  0.33918213    -0.26600
C1304       C  0.99296521  0.27137420  0.35580868     0.05600
C1305       C  0.96740402  0.27939280  0.33991854    -0.31500
O1306       O  0.97065854  0.31348398  0.23488766    -0.23300
C1307       C  0.99527778  0.31543576  0.21801589    -0.03300
C1308       C  0.02082740  0.30650525  0.23352822    -0.17700
H1309       H  0.04987619  0.28507290  0.28707134     0.20300
H1310       H  0.93863749  0.30109562  0.28659309     0.18700
H1311       H  0.94468919  0.28088907  0.34817510     0.18600
H1312       H  0.04322429  0.30378700  0.22477562     0.14500
C1313       C  0.00562423  0.30427065  0.73091537     0.29900
C1314       C  0.02323520  0.30140638  0.70506213    -0.36400
C1315       C  0.00910280  0.28811486  0.68010775     0.15900
C1316       C  0.97955401  0.27859982  0.68036363     0.21700
C1317       C  0.96187606  0.28150508  0.70622238    -0.34600
C1318       C  0.97612908  0.29457169  0.73129825     0.15800
O1319       O  0.01468919  0.31497614  0.75713172    -0.26600
C1320       C  0.99070905  0.31208721  0.77457435     0.05600
C1321       C  0.96604175  0.29953621  0.75968319    -0.31500
O1322       O  0.97078528  0.26751894  0.65418874    -0.23300
C1323       C  0.99517060  0.26966785  0.63716700    -0.03300
C1324       C  0.01967069  0.28231034  0.65209407    -0.17700
H1325       H  0.04642142  0.30875065  0.70453708     0.20300
H1326       H  0.93874257  0.27397427  0.70679672     0.18700
H1327       H  0.94421315  0.29402428  0.76883692     0.18600
H1328       H  0.04167797  0.28755263  0.64321721     0.14500
C1329       C  0.86086915  0.43385128  0.40238749     0.29900
C1330       C  0.87664693  0.42616787  0.42862599    -0.36400
C1331       C  0.89035218  0.39784775  0.42839662     0.15900
C1332       C  0.88788985  0.37808619  0.40439061     0.21700
C1333       C  0.87199176  0.38565971  0.37831098    -0.34600
C1334       C  0.85908606  0.41426751  0.37821022     0.15800
O1335       O  0.84763318  0.45974863  0.39698665    -0.26600
C1336       C  0.83769976  0.45684244  0.36878989     0.05600
C1337       C  0.84413528  0.42891593  0.35611892    -0.31500
O1338       O  0.90305893  0.35317969  0.40856390    -0.23300
C1339       C  0.91592969  0.35720591  0.43534474    -0.03300
C1340       C  0.90876138  0.38455117  0.44882253    -0.17700
H1341       H  0.87889791  0.44156397  0.44748604     0.20300
H1342       H  0.87060228  0.37067114  0.35904617     0.18700
H1343       H  0.83864302  0.42054755  0.33382836     0.18600
H1344       H  0.91615838  0.39334174  0.47040655     0.14500
C1345       C  0.86821177  0.41855107  0.62342588     0.29900
C1346       C  0.87789950  0.38875727  0.62509150    -0.36400
C1347       C  0.89631010  0.37918732  0.60158305     0.15900
C1348       C  0.90496688  0.39780007  0.57824469     0.21700
C1349       C  0.89529103  0.42764154  0.57654137    -0.34600
C1350       C  0.87647772  0.43704526  0.59987082     0.15800
O1351       O  0.85015441  0.43181773  0.64256244    -0.26600
C1352       C  0.84647291  0.45903694  0.63094032     0.05600
C1353       C  0.86233670  0.46358103  0.60438267    -0.31500
O1354       O  0.92204562  0.38403062  0.55857692    -0.23300
C1355       C  0.92411199  0.35625355  0.56938550    -0.03300
C1356       C  0.90855415  0.35186481  0.59606984    -0.17700
H1357       H  0.87116132  0.37393810  0.64320716     0.20300
H1358       H  0.90158395  0.44229194  0.55811556     0.18700
H1359       H  0.86326126  0.48329708  0.59027932     0.18600
H1360       H  0.90653006  0.33154833  0.60934054     0.14500
C1361       C  0.09112380  0.39982655  0.57521419     0.29900
C1362       C  0.10066139  0.43021762  0.57419191    -0.36400
C1363       C  0.12375157  0.43879645  0.59430187     0.15900
C1364       C  0.13600851  0.41900007  0.61458179     0.21700
C1365       C  0.12655361  0.38863369  0.61552894    -0.34600
C1366       C  0.10396427  0.37991423  0.59501113     0.15800
O1367       O  0.07051904  0.38678599  0.55785648    -0.26600
C1368       C  0.07021678  0.35801121  0.56643307     0.05600
C1369       C  0.09067453  0.35250012  0.58951476    -0.31500
O1370       O  0.15633468  0.43199646  0.63224135    -0.23300
C1371       C  0.15774719  0.46049896  0.62289932    -0.03300
C1372       C  0.13799090  0.46593449  0.59916821    -0.17700
H1373       H  0.09092092  0.44602017  0.55860963     0.20300
H1374       H  0.13624806  0.37283975  0.63114692     0.18700
H1375       H  0.09535693  0.33128772  0.60037963     0.18600
H1376       H  0.13367870  0.48707834  0.58808847     0.14500
C1377       C  0.12654615  0.41748830  0.37683989     0.29900
C1378       C  0.11411522  0.38851994  0.37458028    -0.36400
C1379       C  0.09395673  0.38052876  0.39732638     0.15900
C1380       C  0.08648974  0.39965569  0.42068796     0.21700
C1381       C  0.09935112  0.42845276  0.42323158    -0.34600
C1382       C  0.11962681  0.43636144  0.40055438     0.15800
O1383       O  0.14461766  0.43029161  0.35722742    -0.26600
C1384       C  0.14957647  0.45753579  0.36881827     0.05600
C1385       C  0.13492215  0.46241199  0.39590781    -0.31500
O1386       O  0.06733333  0.38728967  0.43959383    -0.23300
C1387       C  0.06270915  0.35986990  0.42821814    -0.03300
C1388       C  0.07861053  0.35445547  0.40193005    -0.17700
H1389       H  0.11953173  0.37340632  0.35624295     0.20300
H1390       H  0.09386054  0.44364478  0.44148590     0.18700
H1391       H  0.13441807  0.48252081  0.40960676     0.18600
H1392       H  0.07933413  0.33398369  0.38862910     0.14500
C1393       C  0.09426394  0.13950686  0.59729585     0.29900
C1394       C  0.11714562  0.13447563  0.61838088    -0.36400
C1395       C  0.11875436  0.10512005  0.62989612     0.15900
C1396       C  0.09876465  0.08254742  0.62176658     0.21700
C1397       C  0.07619337  0.08748116  0.60041874    -0.34600
C1398       C  0.07505024  0.11656305  0.58836260     0.15800
O1399       O  0.08797609  0.16537764  0.58436631    -0.26600
C1400       C  0.06473088  0.15876536  0.56658570     0.05600
C1401       C  0.05595473  0.12863784  0.56791318    -0.31500
O1402       O  0.10384602  0.05701650  0.63579730    -0.23300
C1403       C  0.12770420  0.06305033  0.65283981    -0.03300
C1404       C  0.13808002  0.09264507  0.64997778    -0.17700
H1405       H  0.13252839  0.15220665  0.62537556     0.20300
H1406       H  0.06057355  0.06985652  0.59370328     0.18700
H1407       H  0.03737572  0.11759473  0.55649803     0.18600
H1408       H  0.15686518  0.10345465  0.66126128     0.14500
C1409       C  0.91931838  0.11833145  0.59965971     0.29900
C1410       C  0.92092772  0.08921232  0.61185299    -0.36400
C1411       C  0.89923645  0.08166092  0.63355178     0.15900
C1412       C  0.87725286  0.10128806  0.64246200     0.21700
C1413       C  0.87585676  0.13055574  0.63063496    -0.34600
C1414       C  0.89765770  0.13814083  0.60905831     0.15800
O1415       O  0.93722601  0.13002478  0.57890879    -0.26600
C1416       C  0.92700933  0.15781192  0.57501724     0.05600
C1417       C  0.90243265  0.16402608  0.59329208    -0.31500
O1418       O  0.85777752  0.08867183  0.66101881    -0.23300
C1419       C  0.86758069  0.06064411  0.66445034    -0.03300
C1420       C  0.89349958  0.05518315  0.64807090    -0.17700
H1421       H  0.93765354  0.07335458  0.60457478     0.20300
H1422       H  0.85859603  0.14610853  0.63731263     0.18700
H1423       H  0.89002765  0.18476269  0.59487598     0.18600
H1424       H  0.90524838  0.03426768  0.64546447     0.14500
C1425       C  0.89272214  0.13554757  0.39616771     0.29900
C1426       C  0.86800210  0.12789701  0.37807395    -0.36400
C1427       C  0.86743497  0.09845836  0.36652416     0.15900
C1428       C  0.88980046  0.07799251  0.37191871     0.21700
C1429       C  0.91452777  0.08562399  0.39002626    -0.34600
C1430       C  0.91483884  0.11491626  0.40201790     0.15800
O1431       O  0.89788147  0.16183755  0.40933724    -0.26600
C1432       C  0.92346933  0.15779964  0.42409849     0.05600
C1433       C  0.93492903  0.12903827  0.42042519    -0.31500
O1434       O  0.88439059  0.05159706  0.35909896    -0.23300
C1435       C  0.85803011  0.05518228  0.34567145    -0.03300
C1436       C  0.84653690  0.08391129  0.34946123    -0.17700
H1437       H  0.85028723  0.14366647  0.37356858     0.20300
H1438       H  0.93209700  0.06975013  0.39474453     0.18700
H1439       H  0.95544080  0.12007484  0.42955275     0.18600
H1440       H  0.82578054  0.09283143  0.34089536     0.14500
C1441       C  0.11316486  0.09935290  0.36386163     0.29900
C1442       C  0.11461107  0.12896644  0.37492006    -0.36400
C1443       C  0.09047735  0.13797031  0.39277841     0.15900
C1444       C  0.06676360  0.11902230  0.39974745     0.21700
C1445       C  0.06503819  0.08957867  0.38820232    -0.34600
C1446       C  0.08896965  0.08073353  0.36988949     0.15800
O1447       O  0.13348593  0.08612455  0.34707598    -0.26600
C1448       C  0.12196663  0.05881256  0.34177337     0.05600
C1449       C  0.09416628  0.05430509  0.35523456    -0.31500
O1450       O  0.04719225  0.13185026  0.41774861    -0.23300
C1451       C  0.05841496  0.15944496  0.42200983    -0.03300
C1452       C  0.08515912  0.16460456  0.40684318    -0.17700
H1453       H  0.13330355  0.14389956  0.37004515     0.20300
H1454       H  0.04641926  0.07460301  0.39322304     0.18700
H1455       H  0.07995377  0.03448820  0.35473439     0.18600
H1456       H  0.09887683  0.18488344  0.40665553     0.14500
C1457       C  0.98087939  0.72132447  0.26306114     0.29900
C1458       C  0.96325501  0.72283845  0.28906685    -0.36400
C1459       C  0.97664694  0.73702053  0.31400934     0.15900
C1460       C  0.00538169  0.74888287  0.31348980     0.21700
C1461       C  0.02273109  0.74793756  0.28727893    -0.34600
C1462       C  0.00942713  0.73357732  0.26240682     0.15800
O1463       O  0.97292935  0.70909211  0.23712209    -0.26600
C1464       C  0.99670955  0.71363416  0.21963712     0.05600
C1465       C  0.02010975  0.72862876  0.23425644    -0.31500
O1466       O  0.01450145  0.75833765  0.34020032    -0.23300
C1467       C  0.99121375  0.75260936  0.35793922    -0.03300
C1468       C  0.96690038  0.73976029  0.34278084    -0.17700
H1469       H  0.94095714  0.71305455  0.29000322     0.20300
H1470       H  0.04534671  0.75693588  0.28658835     0.18700
H1471       H  0.04146165  0.73571900  0.22503649     0.18600
H1472       H  0.94592907  0.73162808  0.35208007     0.14500
C1473       C  0.97869277  0.73984084  0.68307831     0.29900
C1474       C  0.96169889  0.73078941  0.70803063    -0.36400
C1475       C  0.97781403  0.72543253  0.73454163     0.15900
C1476       C  0.00845374  0.72905665  0.73658182     0.21700
C1477       C  0.02544145  0.73844654  0.71173094    -0.34600
C1478       C  0.00936811  0.74350930  0.68510979     0.15800
O1479       O  0.96845699  0.74468675  0.65565756    -0.26600
C1480       C  0.99292450  0.75162157  0.63995450     0.05600
C1481       C  0.01897902  0.75127921  0.65715479    -0.31500
O1482       O  0.01878402  0.72294625  0.76367972    -0.23300
C1483       C  0.99449023  0.71478777  0.77912823    -0.03300
C1484       C  0.96831077  0.71630973  0.76208376    -0.17700
H1485       H  0.93766599  0.72763883  0.70673936     0.20300
H1486       H  0.04951917  0.74123465  0.71294731     0.18700
H1487       H  0.04179242  0.75523019  0.64985226     0.18600
H1488       H  0.94539228  0.71251017  0.76901649     0.14500
C1489       C  0.12842749  0.60015526  0.37913233     0.29900
C1490       C  0.11936151  0.63030143  0.37884315    -0.36400
C1491       C  0.10050150  0.63920974  0.40242933     0.15900
C1492       C  0.09095188  0.61979100  0.42472201     0.21700
C1493       C  0.10037034  0.58970263  0.42525067    -0.34600
C1494       C  0.11943918  0.58086357  0.40174258     0.15800
O1495       O  0.14556767  0.58692594  0.35893821    -0.26600
C1496       C  0.14797758  0.55883709  0.36892949     0.05600
C1497       C  0.13221427  0.55385022  0.39552010    -0.31500
O1498       O  0.07253218  0.63274851  0.44398049    -0.23300
C1499       C  0.07047390  0.66091576  0.43398075    -0.03300
C1500       C  0.08756029  0.66619084  0.40831341    -0.17700
H1501       H  0.12633530  0.64569866  0.36130058     0.20300
H1502       H  0.09316607  0.57420953  0.44262287     0.18700
H1503       H  0.12996872  0.53330228  0.40823090     0.18600
H1504       H  0.08961863  0.68679008  0.39549196     0.14500
C1505       C  0.12610815  0.60042680  0.61992001     0.29900
C1506       C  0.11201130  0.62830344  0.62340005    -0.36400
C1507       C  0.09537714  0.63823294  0.59858484     0.15900
C1508       C  0.09254817  0.62175725  0.57225977     0.21700
C1509       C  0.10695312  0.59406197  0.56867388    -0.34600
C1510       C  0.12379425  0.58427042  0.59338327     0.15800
O1511       O  0.14240228  0.58663227  0.64032932    -0.26600
C1512       C  0.15088433  0.56141831  0.62658735     0.05600
C1513       C  0.14005537  0.55886542  0.59726927    -0.31500
O1514       O  0.07554797  0.63512345  0.55211045    -0.23300
C1515       C  0.06764159  0.66064721  0.56560564    -0.03300
C1516       C  0.07941229  0.66382431  0.59449779    -0.17700
H1517       H  0.11382638  0.64130409  0.64402141     0.20300
H1518       H  0.10511683  0.58102550  0.54807963     0.18700
H1519       H  0.14318920  0.54079303  0.58123217     0.18600
H1520       H  0.07646131  0.68226381  0.61020502     0.14500
C1521       C  0.89814273  0.62037946  0.57515610     0.29900
C1522       C  0.88845491  0.59034167  0.57415620    -0.36400
C1523       C  0.86835196  0.58168470  0.59669432     0.15900
C1524       C  0.85868784  0.60099869  0.61898790     0.21700
C1525       C  0.86803551  0.63123674  0.61973528    -0.34600
C1526       C  0.88793764  0.64002421  0.59694923     0.15800
O1527       O  0.91717657  0.63317744  0.55645548    -0.26600
C1528       C  0.91901157  0.66143314  0.56625254     0.05600
C1529       C  0.90121740  0.66707852  0.59128885    -0.31500
O1530       O  0.84071905  0.58757965  0.63840200    -0.23300
C1531       C  0.83856102  0.55948797  0.62799490    -0.03300
C1532       C  0.85518641  0.55465218  0.60207209    -0.17700
H1533       H  0.89615388  0.57477869  0.55709416     0.20300
H1534       H  0.86050415  0.64673146  0.63693223     0.18700
H1535       H  0.89862109  0.68800418  0.60356762     0.18600
H1536       H  0.85788698  0.53415475  0.58929344     0.14500
C1537       C  0.85817124  0.58162539  0.40269579     0.29900
C1538       C  0.87887707  0.58787797  0.42590896    -0.36400
C1539       C  0.89195088  0.61689206  0.42601503     0.15900
C1540       C  0.88475732  0.63850563  0.40506947     0.21700
C1541       C  0.86404500  0.63229919  0.38192424    -0.34600
C1542       C  0.85133849  0.60316163  0.38156060     0.15800
O1543       O  0.84472903  0.55540788  0.39713721    -0.26600
C1544       C  0.82919879  0.56009823  0.37194046     0.05600
C1545       C  0.83243443  0.58954190  0.36142767    -0.31500
O1546       O  0.89960018  0.66411901  0.40940195    -0.30500
C1547       C  0.91689719  0.65878091  0.43322987    -0.03300
C1548       C  0.91307278  0.62972929  0.44446648    -0.17700
H1549       H  0.88492682  0.57105760  0.44232193     0.20300
H1550       H  0.85866093  0.64884943  0.36499426     0.18700
H1551       H  0.82312803  0.59926351  0.34121672     0.18600
H1552       H  0.92387289  0.61975504  0.46378296     0.14500
C1553       C  0.06952024  0.89997506  0.39712678     0.29900
C1554       C  0.06775800  0.92923154  0.38521427    -0.36400
C1555       C  0.08855314  0.93671336  0.36258722     0.15900
C1556       C  0.11012460  0.91708316  0.35273081     0.21700
C1557       C  0.11167241  0.88766985  0.36433035    -0.34600
C1558       C  0.09056390  0.88002522  0.38667964     0.15800
O1559       O  0.05200960  0.88811730  0.41817873    -0.26600
C1560       C  0.06176758  0.86000579  0.42123085     0.05600
C1561       C  0.08576493  0.85384984  0.40211869    -0.31500
O1562       O  0.12884918  0.92973358  0.33329929    -0.23300
C1563       C  0.11881455  0.95775054  0.33021958    -0.03300
C1564       C  0.09353741  0.96307425  0.34764528    -0.17700
H1565       H  0.05141213  0.94517199  0.39317834     0.20300
H1566       H  0.12841859  0.87195732  0.35675946     0.18700
H1567       H  0.09766226  0.83290263  0.39963046     0.18600
H1568       H  0.08169556  0.98388179  0.35055932     0.14500
C1569       C  0.90156336  0.87623930  0.38943618     0.29900
C1570       C  0.87964163  0.88062051  0.36732723    -0.36400
C1571       C  0.87434736  0.91059544  0.35954438     0.15900
C1572       C  0.89024356  0.93450871  0.37193198     0.21700
C1573       C  0.91218062  0.93014320  0.39398513    -0.34600
C1574       C  0.91685491  0.90023613  0.40239519     0.15800
O1575       O  0.90913076  0.85023037  0.40112376    -0.26600
C1576       C  0.92926790  0.85770964  0.42204053     0.05600
C1577       C  0.93498164  0.88852338  0.42385138    -0.31500
O1578       O  0.88155706  0.96062524  0.36148049    -0.23300
C1579       C  0.85949645  0.95334789  0.34262993    -0.03300
C1580       C  0.85386351  0.92258967  0.34051746    -0.17700
H1581       H  0.86706446  0.86203548  0.35748644     0.20300
H1582       H  0.92422751  0.94879785  0.40435335     0.18700
H1583       H  0.95005604  0.90051097  0.43894923     0.18600
H1584       H  0.83728424  0.91089138  0.32685812     0.14500
C1585       C  0.91641943  0.90046641  0.59292449     0.29900
C1586       C  0.91863333  0.92932319  0.60588387    -0.36400
C1587       C  0.89398453  0.93856235  0.62302163     0.15900
C1588       C  0.86860869  0.92093044  0.62660167     0.21700
C1589       C  0.86643941  0.89199365  0.61379202    -0.34600
C1590       C  0.89134693  0.88249864  0.59718414     0.15800
O1591       O  0.93718236  0.88700338  0.57679209    -0.26600
C1592       C  0.92545282  0.85988527  0.57101438     0.05600
C1593       C  0.89697535  0.85580158  0.58316469    -0.31500
O1594       O  0.84820203  0.93413400  0.64338100    -0.23300
C1595       C  0.86084073  0.96039386  0.65113515    -0.03300
C1596       C  0.88938839  0.96428279  0.63914987    -0.17700
H1597       H  0.93840263  0.94339227  0.60319851     0.20300
H1598       H  0.84689272  0.87770681  0.61694713     0.18700
H1599       H  0.88260632  0.83600849  0.58188390     0.18600
H1600       H  0.90458530  0.98320039  0.64175106     0.14500
C1601       C  0.09078445  0.88109788  0.60304627     0.29900
C1602       C  0.11621103  0.88849720  0.62023988    -0.36400
C1603       C  0.11711173  0.91771580  0.63230726     0.15900
C1604       C  0.09427443  0.93796538  0.62829897     0.21700
C1605       C  0.06883661  0.93055051  0.61120368    -0.34600
C1606       C  0.06825505  0.90161925  0.59855555     0.15800
O1607       O  0.08578925  0.85548543  0.58870446    -0.26600
C1608       C  0.06004091  0.85993471  0.57443285     0.05600
C1609       C  0.04802436  0.88816785  0.57979610    -0.31500
O1610       O  0.09980063  0.96406763  0.64143249    -0.23300
C1611       C  0.12666158  0.96069670  0.65376549    -0.03300
C1612       C  0.13856584  0.93225261  0.64882366    -0.17700
H1613       H  0.13428023  0.87281311  0.62343483     0.20300
H1614       H  0.05106243  0.94645871  0.60749084     0.18700
H1615       H  0.02742002  0.89736685  0.57111889     0.18600
H1616       H  0.15972770  0.92343108  0.65643800     0.14500
C1617       C  0.23023288  0.79182249  0.51356464     0.29900
C1618       C  0.20638733  0.78098067  0.53127911    -0.36400
C1619       C  0.17947184  0.77481359  0.51582420     0.15900
C1620       C  0.17653785  0.77852655  0.48509060     0.21700
C1621       C  0.20043702  0.78868869  0.46745551    -0.34600
C1622       C  0.22694945  0.79543612  0.48291702     0.15800
O1623       O  0.25745763  0.79920004  0.52295313    -0.26600
C1624       C  0.27141614  0.80841494  0.49801992     0.05600
C1625       C  0.25349852  0.80589231  0.47245644    -0.31500
O1626       O  0.14905595  0.77361939  0.47545045    -0.23300
C1627       C  0.13396399  0.76671649  0.50025292    -0.03300
C1628       C  0.15175424  0.76683649  0.52609663    -0.17700
H1629       H  0.20843343  0.77826481  0.55540992     0.20300
H1630       H  0.19822702  0.79201598  0.44342170     0.18700
H1631       H  0.25960031  0.80969321  0.44919257     0.18600
H1632       H  0.14490956  0.76321034  0.54919130     0.14500
C1633       C  0.40137444  0.72591655  0.47180590     0.29900
C1634       C  0.42884515  0.71092012  0.47241492    -0.36400
C1635       C  0.42821200  0.68061344  0.46302849     0.15900
C1636       C  0.40238291  0.66593982  0.45357381     0.21700
C1637       C  0.37511859  0.68116581  0.45218653    -0.34600
C1638       C  0.37576555  0.71135320  0.46175839     0.15800
O1639       O  0.39618709  0.75349350  0.48193536    -0.26600
C1640       C  0.36678152  0.75656211  0.47836613     0.05600
C1641       C  0.35315384  0.73102160  0.46560568    -0.31500
O1642       O  0.40589111  0.63654194  0.45051803    -0.23300
C1643       C  0.43440543  0.63236543  0.45788223    -0.03300
C1644       C  0.44935962  0.65903410  0.46553866    -0.17700
H1645       H  0.44896525  0.72157542  0.48123739     0.20300
H1646       H  0.35445408  0.66975799  0.44592246     0.18700
H1647       H  0.32979052  0.72705202  0.46028806     0.18600
H1648       H  0.47165787  0.66157852  0.47489283     0.14500
C1649       C  0.17648469  0.23789476  0.47948177     0.29900
C1650       C  0.20287750  0.23610889  0.46242337    -0.36400
C1651       C  0.22764288  0.22343531  0.47701453     0.15900
C1652       C  0.22649165  0.21286305  0.50619342     0.21700
C1653       C  0.20016205  0.21467334  0.52319163    -0.34600
C1654       C  0.17559496  0.22777056  0.50881767     0.15800
O1655       O  0.15055853  0.24884197  0.47050511    -0.26600
C1656       C  0.13305503  0.24609387  0.49464919     0.05600
C1657       C  0.14753990  0.23316343  0.51906905    -0.31500
O1658       O  0.25255633  0.20295536  0.51579846    -0.23300
C1659       C  0.27077002  0.20738088  0.49251669    -0.03300
C1660       C  0.25641026  0.21997982  0.46776494    -0.17700
H1661       H  0.20415056  0.24438066  0.43955773     0.20300
H1662       H  0.19905465  0.20692132  0.54624426     0.18700
H1663       H  0.13839069  0.22767544  0.54096146     0.18600
H1664       H  0.26619060  0.22671806  0.44650489     0.14500
C1665       C  0.43230765  0.33713543  0.48165706     0.29900
C1666       C  0.43491420  0.30550832  0.48235981    -0.36400
C1667       C  0.40782170  0.28904945  0.48488478     0.15900
C1668       C  0.38045696  0.30303155  0.48652030     0.21700
C1669       C  0.37788512  0.33423488  0.48599303    -0.34600
C1670       C  0.40460772  0.35042536  0.48350052     0.15800
O1671       O  0.45433956  0.35735990  0.48043737    -0.26600
C1672       C  0.44012908  0.38358654  0.48159113     0.05600
C1673       C  0.40928268  0.38045407  0.48345115    -0.31500
O1674       O  0.35800084  0.28404383  0.48900173    -0.23300
C1675       C  0.37063210  0.25717438  0.48914564    -0.03300
C1676       C  0.40177073  0.25872432  0.48661649    -0.17700
H1677       H  0.45641199  0.29459556  0.48135965     0.20300
H1678       H  0.35642998  0.34517578  0.48770910     0.18700
H1679       H  0.39270005  0.39793033  0.48548195     0.18600
H1680       H  0.41752698  0.24042903  0.48615560     0.14500
C1681       C  0.70440025  0.27498962  0.98161818     0.29900
C1682       C  0.71320479  0.29938566  0.96351269    -0.36400
C1683       C  0.72044424  0.32620788  0.97883963     0.15900
C1684       C  0.71946276  0.32867758  0.00982671     0.21700
C1685       C  0.71050322  0.30436003  0.02785310    -0.34600
C1686       C  0.70281530  0.27771097  0.01252247     0.15800
O1687       O  0.69799402  0.24746486  0.97222364    -0.26600
C1688       C  0.69191159  0.23232814  0.99738670     0.05600
C1689       C  0.69431302  0.25021802  0.02318044    -0.31500
O1690       O  0.72670500  0.35589304  0.01948082    -0.23300
C1691       C  0.73232582  0.37116146  0.99438703    -0.03300
C1692       C  0.72871692  0.35386530  0.96834944    -0.17700
H1693       H  0.71444068  0.29753989  0.93922718     0.20300
H1694       H  0.70955211  0.30612391  0.05215323     0.18700
H1695       H  0.69205013  0.24373467  0.04651710     0.18600
H1696       H  0.73093708  0.36090180  0.94513162     0.14500
C1697       C  0.81984129  0.07652372  0.96632848     0.29900
C1698       C  0.79022083  0.07361416  0.97667292    -0.36400
C1699       C  0.77164844  0.09835484  0.97181971     0.15900
C1700       C  0.78163998  0.12423845  0.95778644     0.21700
C1701       C  0.81091582  0.12665332  0.94627000    -0.34600
C1702       C  0.82954159  0.10182728  0.95107436     0.15800
O1703       O  0.84194263  0.05827801  0.97285098    -0.26600
C1704       C  0.86617793  0.07152888  0.96114571     0.05600
C1705       C  0.85975821  0.09860220  0.94690930    -0.31500
O1706       O  0.76206616  0.14615357  0.95956729    -0.23300
C1707       C  0.73907020  0.13407386  0.97457999    -0.03300
C1708       C  0.74359032  0.10419535  0.98235733    -0.17700
H1709       H  0.78279604  0.05425217  0.98951173     0.20300
H1710       H  0.81920167  0.14724979  0.93613367     0.18700
H1711       H  0.87543315  0.11494468  0.93779645     0.18600
H1712       H  0.72943532  0.08977796  0.99600320     0.14500
C1713       C  0.27329346  0.32778401  0.01015823     0.29900
C1714       C  0.27796624  0.30232225  0.02790724    -0.36400
C1715       C  0.28888144  0.27698775  0.01288360     0.15900
C1716       C  0.29552915  0.27676098  0.98253987     0.21700
C1717       C  0.29142562  0.30253360  0.96478072    -0.34600
C1718       C  0.27968162  0.32772785  0.97973971     0.15800
O1719       O  0.26200114  0.35342479  0.01954287    -0.26600
C1720       C  0.26073672  0.37005569  0.99480096     0.05600
C1721       C  0.27150625  0.35525168  0.96930234    -0.31500
O1722       O  0.30275410  0.24967565  0.97275740    -0.23300
C1723       C  0.30067445  0.23242917  0.99720300    -0.03300
C1724       C  0.29203190  0.24832485  0.02271893    -0.17700
H1725       H  0.27226306  0.30189855  0.05158242     0.20300
H1726       H  0.29575601  0.30250757  0.94079565     0.18700
H1727       H  0.27357549  0.36377759  0.94657653     0.18600
H1728       H  0.28698585  0.23958825  0.04488145     0.14500
C1729       C  0.16242812  0.07628017  0.97614237     0.29900
C1730       C  0.19377718  0.07257736  0.97668636    -0.36400
C1731       C  0.21106737  0.09910037  0.98096467     0.15900
C1732       C  0.19816202  0.12701120  0.98409832     0.21700
C1733       C  0.16724298  0.13069119  0.98317699    -0.34600
C1734       C  0.15017352  0.10448656  0.97930806     0.15800
O1735       O  0.14159249  0.05477651  0.97483004    -0.26600
C1736       C  0.11598247  0.06976274  0.97732122     0.05600
C1737       C  0.12014349  0.10065214  0.98008098    -0.31500
O1738       O  0.21776899  0.14870218  0.98893228    -0.23300
C1739       C  0.24395892  0.13497855  0.98903177    -0.03300
C1740       C  0.24131534  0.10393306  0.98408457    -0.17700
H1741       H  0.20386633  0.05060869  0.97490593     0.20300
H1742       H  0.15711690  0.15250398  0.98626696     0.18700
H1743       H  0.10340238  0.11773453  0.98359594     0.18600
H1744       H  0.25887853  0.08740923  0.98304630     0.14500
C1745       C  0.76232888  0.80557396  0.50950728     0.29900
C1746       C  0.78630195  0.79741957  0.52791260    -0.36400
C1747       C  0.81123483  0.78589127  0.51304513     0.15900
C1748       C  0.81265851  0.78278840  0.48212802     0.21700
C1749       C  0.78848653  0.79061182  0.46366431    -0.34600
C1750       C  0.76343156  0.80205753  0.47862398     0.15800
O1751       O  0.73638832  0.81556421  0.51892814    -0.26600
C1752       C  0.72058857  0.81882656  0.49380510     0.05600
C1753       C  0.73620905  0.81037667  0.46800731    -0.31500
O1754       O  0.83896837  0.77336919  0.47298311    -0.23300
C1755       C  0.85439921  0.77021295  0.49841610    -0.03300
C1756       C  0.83817941  0.77745243  0.52405865    -0.17700
H1757       H  0.78555457  0.79990423  0.55216042     0.20300
H1758       H  0.78924058  0.78814072  0.43940813     0.18700
H1759       H  0.72809022  0.80901132  0.44504525     0.18600
H1760       H  0.84574738  0.77818489  0.54723613     0.14500
C1761       C  0.56041710  0.68869058  0.51040188     0.29900
C1762       C  0.55727561  0.72020518  0.50742039    -0.36400
C1763       C  0.58405824  0.73685951  0.50286838     0.15900
C1764       C  0.61155739  0.72312756  0.50147647     0.21700
C1765       C  0.61459451  0.69210746  0.50409562    -0.34600
C1766       C  0.58825614  0.67573833  0.50857477     0.15800
O1767       O  0.53880553  0.66816753  0.51362580    -0.26600
C1768       C  0.55341875  0.64207953  0.51370241     0.05600
C1769       C  0.58413574  0.64568322  0.51069312    -0.31500
O1770       O  0.63381928  0.74216065  0.49794993    -0.23300
C1771       C  0.62101803  0.76888640  0.49692546    -0.03300
C1772       C  0.58985098  0.76716570  0.49966287    -0.17700
H1773       H  0.53565255  0.73087796  0.50842371     0.20300
H1774       H  0.63619012  0.68141364  0.50268937     0.18700
H1775       H  0.60095992  0.62842381  0.50888789     0.18600
H1776       H  0.57398609  0.78537509  0.49994667     0.14500
C1777       C  0.68945213  0.74397903  0.00712567     0.29900
C1778       C  0.69164275  0.71799262  0.02486319    -0.36400
C1779       C  0.70625587  0.69354288  0.01144353     0.15900
C1780       C  0.71737755  0.69445107  0.98245056     0.21700
C1781       C  0.71532105  0.72040660  0.96488836    -0.34600
C1782       C  0.70115692  0.74487589  0.97838483     0.15800
O1783       O  0.67871549  0.77018754  0.01569748    -0.26600
C1784       C  0.68385221  0.78797540  0.99213443     0.05600
C1785       C  0.69768641  0.77335850  0.96833145    -0.31500
O1786       O  0.72936240  0.66883021  0.97398226    -0.23300
C1787       C  0.72630499  0.65130494  0.99798555    -0.03300
C1788       C  0.71222283  0.66553064  0.02205298    -0.17700
H1789       H  0.68310703  0.71709253  0.04765224     0.20300
H1790       H  0.72450597  0.72158203  0.94237852     0.18700
H1791       H  0.70553403  0.78289513  0.94733922     0.18600
H1792       H  0.70629113  0.65619556  0.04375729     0.14500
C1793       C  0.77926823  0.89800361  0.01041277     0.29900
C1794       C  0.80953536  0.89542456  0.01736611    -0.36400
C1795       C  0.82616923  0.92211738  0.01730539     0.15900
C1796       C  0.81406410  0.94979340  0.01083092     0.21700
C1797       C  0.78343330  0.95241382  0.00358467    -0.34600
C1798       C  0.76654889  0.92534492  0.00372277     0.15800
O1799       O  0.76020126  0.87543866  0.00896202    -0.26600
C1800       C  0.73454091  0.88795648  0.00128474     0.05600
C1801       C  0.73695513  0.91916012  0.99766027    -0.31500
O1802       O  0.83463689  0.97149429  0.01074186    -0.23300
C1803       C  0.85989207  0.95716336  0.01721361    -0.03300
C1804       C  0.85587385  0.92650091  0.02144053    -0.17700
H1805       H  0.81953717  0.87388025  0.02211885     0.20300
H1806       H  0.77363855  0.97382401  0.99787830     0.18700
H1807       H  0.71975448  0.93480854  0.99116106     0.18600
H1808       H  0.87272796  0.90965523  0.02543811     0.14500
C1809       C  0.27684614  0.69270319  0.98345678     0.29900
C1810       C  0.28763150  0.71677330  0.96590333    -0.36400
C1811       C  0.28926024  0.74499648  0.98026686     0.15900
C1812       C  0.28087750  0.74913454  0.00985698     0.21700
C1813       C  0.27035477  0.72506978  0.02748557    -0.34600
C1814       C  0.26869106  0.69690508  0.01312786     0.15800
O1815       O  0.27258865  0.66464259  0.97432591    -0.26600
C1816       C  0.26153573  0.65067766  0.99844949     0.05600
C1817       C  0.25882799  0.66962462  0.02333152    -0.31500
O1818       O  0.28273750  0.77753890  0.01833504    -0.23300
C1819       C  0.29250093  0.79201759  0.99394722    -0.03300
C1820       C  0.29712879  0.77278136  0.96953232    -0.17700
H1821       H  0.29377467  0.71380727  0.94251873     0.20300
H1822       H  0.26336710  0.72822090  0.05060728     0.18700
H1823       H  0.25049723  0.66414770  0.04555141     0.18600
H1824       H  0.30395687  0.77838672  0.94686720     0.14500
C1825       C  0.14348176  0.91760124  0.03357844     0.29900
C1826       C  0.16033211  0.89120489  0.03664114    -0.36400
C1827       C  0.19037509  0.89296750  0.02695184     0.15900
C1828       C  0.20299129  0.91865892  0.01472788     0.21700
C1829       C  0.18627143  0.94503797  0.01203403    -0.34600
C1830       C  0.15648277  0.94345173  0.02208062     0.15800
O1831       O  0.11433523  0.92054468  0.03850865    -0.26600
C1832       C  0.10889735  0.94890063  0.03057651     0.05600
C1833       C  0.13435791  0.96400208  0.02026950    -0.31500
O1834       O  0.23084451  0.91474202  0.00530880    -0.23300
C1835       C  0.23634061  0.88604710  0.01156568    -0.03300
C1836       C  0.21194217  0.87165203  0.02545877    -0.17700
H1837       H  0.15049957  0.87048840  0.04506038     0.20300
H1838       H  0.19557769  0.96523203  0.00197349     0.18700
H1839       H  0.13573620  0.98623808  0.01039626     0.18600
H1840       H  0.20995940  0.84851270  0.03281821     0.14500
C1841       C  0.25813524  0.99607397  0.29098325     0.29900
C1842       C  0.28366994  0.97821219  0.28715948    -0.36400
C1843       C  0.30902646  0.99274705  0.27487968     0.15900
C1844       C  0.30926607  0.02276009  0.26692152     0.21700
C1845       C  0.28383248  0.04057785  0.27085598    -0.34600
C1846       C  0.25861801  0.02613822  0.28326877     0.15800
O1847       O  0.23140430  0.98682673  0.30022297    -0.26600
C1848       C  0.21459043  0.01138007  0.29846934     0.05600
C1849       C  0.23059157  0.03652996  0.28847346    -0.31500
O1850       O  0.33556073  0.03202758  0.25667783    -0.23300
C1851       C  0.35251148  0.00761627  0.25790521    -0.03300
C1852       C  0.33709387  0.98247540  0.26897961    -0.17700
H1853       H  0.28368760  0.95458311  0.29304774     0.20300
H1854       H  0.28368176  0.06410670  0.26460297     0.18700
H1855       H  0.22212687  0.05875242  0.28374972     0.18600
H1856       H  0.34571735  0.96022856  0.27330300     0.14500
C1857       C  0.67563696  0.99565277  0.26291407     0.29900
C1858       C  0.69983020  0.97669303  0.26837308    -0.36400
C1859       C  0.72549523  0.99062252  0.28032293     0.15900
C1860       C  0.72737277  0.02114988  0.28611646     0.21700
C1861       C  0.70329212  0.04019903  0.28038915    -0.34600
C1862       C  0.67747682  0.02620094  0.26875331     0.15800
O1863       O  0.64882358  0.98701785  0.25383401    -0.26600
C1864       C  0.63326504  0.01232126  0.25382697     0.05600
C1865       C  0.64998912  0.03750173  0.26272926    -0.31500
O1866       O  0.75365542  0.02940112  0.29688229    -0.23300
C1867       C  0.76863873  0.00375994  0.29854548    -0.03300
C1868       C  0.75235283  0.97894412  0.28808408    -0.17700
H1869       H  0.69850750  0.95267966  0.26418476     0.20300
H1870       H  0.70445583  0.06412659  0.28511427     0.18700
H1871       H  0.64251328  0.06038734  0.26598458     0.18600
H1872       H  0.75961495  0.95589800  0.28566891     0.14500
C1873       C  0.39336565  0.87947253  0.42211857     0.29900
C1874       C  0.41907139  0.89654929  0.41502259    -0.36400
C1875       C  0.41900919  0.91083467  0.38685419     0.15900
C1876       C  0.39540963  0.90826619  0.36685830     0.21700
C1877       C  0.36955846  0.89147765  0.37408446    -0.34600
C1878       C  0.36953102  0.87741399  0.40236969     0.15800
O1879       O  0.38862627  0.86430764  0.44724862    -0.26600
C1880       C  0.36122076  0.85265658  0.44375061     0.05600
C1881       C  0.34831842  0.86005807  0.41618572    -0.31500
O1882       O  0.40040356  0.92293575  0.34150547    -0.23300
C1883       C  0.42739545  0.93542282  0.34546861    -0.03300
C1884       C  0.44001921  0.92868405  0.37329082    -0.17700
H1885       H  0.43781375  0.89857980  0.43040778     0.20300
H1886       H  0.35078295  0.88950825  0.35872503     0.18700
H1887       H  0.32651094  0.85352556  0.40752689     0.18600
H1888       H  0.46174187  0.93549947  0.38197475     0.14500
C1889       C  0.62002524  0.88352707  0.40517171     0.29900
C1890       C  0.62139099  0.89440193  0.37561226    -0.36400
C1891       C  0.59736827  0.91221051  0.36652053     0.15900
C1892       C  0.57399997  0.91942688  0.38543733     0.21700
C1893       C  0.57253986  0.90835062  0.41491912    -0.34600
C1894       C  0.59617502  0.88992046  0.42373400     0.15800
O1895       O  0.64004877  0.86654563  0.41839718    -0.26600
C1896       C  0.62861683  0.86159367  0.44560739     0.05600
C1897       C  0.60122628  0.87538268  0.45008016    -0.31500
O1898       O  0.55386626  0.93630334  0.37220170    -0.23300
C1899       C  0.56423574  0.93952516  0.34431685    -0.03300
C1900       C  0.59121026  0.92500252  0.33946535    -0.17700
H1901       H  0.63971003  0.88907809  0.36066452     0.20300
H1902       H  0.55408658  0.91341917  0.42979201     0.18700
H1903       H  0.58727815  0.87533329  0.46990014     0.18600
H1904       H  0.60425107  0.92394883  0.31896879     0.14500
C1905       C  0.39367034  0.13584879  0.42418420     0.29900
C1906       C  0.41737095  0.11623701  0.41845917    -0.36400
C1907       C  0.42010656  0.10625621  0.38861035     0.15900
C1908       C  0.40098846  0.11516622  0.36594624     0.21700
C1909       C  0.37742142  0.13486235  0.37161733    -0.34600
C1910       C  0.37447497  0.14453768  0.40149966     0.15800
O1911       O  0.38658556  0.14752981  0.45053176    -0.26600
C1912       C  0.36237712  0.16359057  0.44463497     0.05600
C1913       C  0.35380502  0.16255737  0.41452041    -0.31500
O1914       O  0.40712174  0.10252467  0.33987308    -0.23300
C1915       C  0.43030508  0.08512193  0.34592949    -0.03300
C1916       C  0.43955322  0.08665255  0.37584582    -0.17700
H1917       H  0.43232100  0.10892570  0.43610862     0.20300
H1918       H  0.36214304  0.14172703  0.35406248     0.18700
H1919       H  0.33516216  0.17361799  0.40381296     0.18600
H1920       H  0.45773198  0.07487338  0.38659142     0.14500
C1921       C  0.48057039  0.24695827  0.20786772     0.29900
C1922       C  0.46345271  0.22040783  0.20999538    -0.36400
C1923       C  0.47826692  0.19528415  0.22142865     0.15900
C1924       C  0.50813093  0.19587797  0.22945681     0.21700
C1925       C  0.52528597  0.22253661  0.22742693    -0.34600
C1926       C  0.51020568  0.24792112  0.21672481     0.15800
O1927       O  0.47100944  0.27317639  0.19824976    -0.26600
C1928       C  0.49475474  0.29131699  0.20115464     0.05600
C1929       C  0.51969541  0.27689250  0.21287208    -0.31500
O1930       O  0.51756515  0.16933902  0.23858050    -0.23300
C1931       C  0.49323648  0.15172251  0.23681170    -0.03300
C1932       C  0.46815202  0.16677326  0.22645113    -0.17700
H1933       H  0.44011712  0.21946697  0.20342364     0.20300
H1934       H  0.54865209  0.22347295  0.23389446     0.18700
H1935       H  0.54157767  0.28648255  0.21777055     0.18600
H1936       H  0.44595206  0.15768385  0.22211413     0.14500
C1937       C  0.48090160  0.77540344  0.20218719     0.29900
C1938       C  0.46272272  0.80047056  0.20675856    -0.36400
C1939       C  0.47737924  0.82664416  0.21698550     0.15900
C1940       C  0.50788294  0.82822404  0.22193704     0.21700
C1941       C  0.52613919  0.80330374  0.21699585    -0.34600
C1942       C  0.51140892  0.77702049  0.20715618     0.15800
O1943       O  0.47155530  0.74798584  0.19517039    -0.26600
C1944       C  0.49638970  0.73182360  0.19575740     0.05600
C1945       C  0.52187174  0.74879175  0.20290745    -0.31500
O1946       O  0.51683396  0.85493349  0.23155253    -0.23300
C1947       C  0.49170686  0.87055767  0.23301776    -0.03300
C1948       C  0.46643777  0.85414067  0.22416125    -0.17700
H1949       H  0.43872815  0.79938856  0.20343371     0.20300
H1950       H  0.55000494  0.80413905  0.22124730     0.18700
H1951       H  0.54452471  0.74100856  0.20606407     0.18600
H1952       H  0.44353057  0.86163293  0.22245736     0.14500
C1953       C  0.63895772  0.12443828  0.08908900     0.29900
C1954       C  0.63101183  0.12307868  0.11966423    -0.36400
C1955       C  0.60590607  0.10499729  0.12661680     0.15900
C1956       C  0.58955398  0.08946261  0.10504302     0.21700
C1957       C  0.59758912  0.09074502  0.07452199    -0.34600
C1958       C  0.62293369  0.10842282  0.06765456     0.15800
O1959       O  0.66049568  0.14125855  0.07716501    -0.26600
C1960       C  0.65856773  0.13538247  0.04774365     0.05600
C1961       C  0.63573636  0.11499164  0.04071589    -0.31500
O1962       O  0.56736563  0.07332831  0.11669618    -0.23300
C1963       C  0.56959975  0.07847103  0.14621026    -0.03300
C1964       C  0.59309215  0.09815291  0.15356742    -0.17700
H1965       H  0.64343219  0.13533989  0.13682236     0.20300
H1966       H  0.58504326  0.07869325  0.05730940     0.18700
H1967       H  0.62806256  0.10783687  0.01878754     0.18600
H1968       H  0.60022037  0.10565356  0.17570842     0.14500
C1969       C  0.58398172  0.93443540  0.10304486     0.29900
C1970       C  0.59583354  0.93682129  0.07392102    -0.36400
C1971       C  0.61183726  0.91185845  0.06373217     0.15900
C1972       C  0.61545409  0.88624878  0.08083143     0.21700
C1973       C  0.60350066  0.88381988  0.10978124    -0.34600
C1974       C  0.58803632  0.90891605  0.12018140     0.15800
O1975       O  0.56868642  0.95514467  0.11742222    -0.26600
C1976       C  0.56324890  0.94272635  0.14410591     0.05600
C1977       C  0.57485087  0.91407414  0.14716391    -0.31500
O1978       O  0.63184353  0.86595566  0.06731834    -0.23300
C1979       C  0.63912956  0.87880968  0.04136995    -0.03300
C1980       C  0.62717909  0.90732419  0.03774083    -0.17700
H1981       H  0.59324031  0.95687105  0.06042770     0.20300
H1982       H  0.60658161  0.86398552  0.12346998     0.18700
H1983       H  0.57347946  0.89916933  0.16635582     0.18600
H1984       H  0.62948644  0.92253319  0.01890466     0.14500
C1985       C  0.35805665  0.91741042  0.06806164     0.29900
C1986       C  0.37386430  0.94374876  0.07638227    -0.36400
C1987       C  0.38912433  0.94262825  0.10408885     0.15900
C1988       C  0.38824868  0.91760975  0.12248684     0.21700
C1989       C  0.37259204  0.89147253  0.11415036    -0.34600
C1990       C  0.35793712  0.89238899  0.08639119     0.15800
O1991       O  0.34280200  0.91278906  0.04289378    -0.26600
C1992       C  0.33319932  0.88436206  0.04527264     0.05600
C1993       C  0.34199364  0.87070248  0.07188004    -0.31500
O1994       O  0.40400293  0.92119902  0.14731916    -0.23300
C1995       C  0.41563971  0.94868381  0.14471594    -0.03300
C1996       C  0.40721218  0.96319290  0.11829335    -0.17700
H1997       H  0.37462511  0.96344787  0.06211234     0.20300
H1998       H  0.37225372  0.87158217  0.12815752     0.18700
H1999       H  0.33727737  0.84805412  0.07959377     0.18600
H2000       H  0.41339011  0.98560675  0.11083032     0.14500
C2001       C  0.38429043  0.10212975  0.12544190     0.29900
C2002       C  0.36180350  0.12316265  0.11989930    -0.36400
C2003       C  0.35184222  0.12508130  0.09001720     0.15900
C2004       C  0.36305084  0.10744428  0.06706987     0.21700
C2005       C  0.38565001  0.08647237  0.07258247    -0.34600
C2006       C  0.39578773  0.08470652  0.10248642     0.15800
O2007       O  0.39669212  0.09644383  0.15178977    -0.26600
C2008       C  0.41655345  0.07518054  0.14566872     0.05600
C2009       C  0.41706069  0.06713726  0.11529091    -0.31500
O2010       O  0.35147744  0.11410549  0.04057500    -0.23300
C2011       C  0.33287167  0.13646379  0.04669686    -0.03300
C2012       C  0.33203887  0.14407855  0.07708465    -0.17700
H2013       H  0.35293556  0.13731117  0.13759012     0.20300
H2014       H  0.39498697  0.07282549  0.05474493     0.18700
H2015       H  0.43074168  0.05038253  0.10436210     0.18600
H2016       H  0.31956639  0.16188838  0.08782401     0.14500
C2017       C  0.75583284  0.22388336  0.50864312     0.29900
C2018       C  0.78054444  0.23120665  0.52691204    -0.36400
C2019       C  0.80799169  0.23481084  0.51205230     0.15900
C2020       C  0.81093616  0.23158104  0.48127712     0.21700
C2021       C  0.78626013  0.22376892  0.46302557    -0.34600
C2022       C  0.75878076  0.21999077  0.47796156     0.15800
O2023       O  0.72793697  0.22077322  0.51775932    -0.26600
C2024       C  0.71264805  0.21423855  0.49274274     0.05600
C2025       C  0.73079049  0.21352008  0.46718515    -0.31500
O2026       O  0.83858089  0.23680999  0.47207859    -0.23300
C2027       C  0.85354091  0.24336205  0.49731785    -0.03300
C2028       C  0.83564539  0.24228715  0.52290733    -0.17700
H2029       H  0.77842060  0.23432637  0.55100175     0.20300
H2030       H  0.78827631  0.22118645  0.43886147     0.18700
H2031       H  0.72434304  0.21004438  0.44392598     0.18600
H2032       H  0.84207977  0.24646292  0.54608697     0.14500
C2033       C  0.60540950  0.16057580  0.40148363     0.29900
C2034       C  0.60577483  0.15051393  0.37134832    -0.36400
C2035       C  0.58529779  0.12726130  0.36389571     0.15900
C2036       C  0.56607103  0.11451459  0.38467674     0.21700
C2037       C  0.56556312  0.12480603  0.41464933    -0.34600
C2038       C  0.58560656  0.14836308  0.42200895     0.15800
O2039       O  0.62383849  0.18058599  0.41398570    -0.26600
C2040       C  0.61530791  0.18163741  0.44279162     0.05600
C2041       C  0.59145929  0.16221897  0.44892518    -0.31500
O2042       O  0.54911064  0.09273550  0.37300202    -0.23300
C2043       C  0.55739724  0.09155735  0.34421443    -0.03300
C2044       C  0.57979626  0.11262700  0.33732629    -0.17700
H2045       H  0.62120261  0.15984258  0.35497350     0.20300
H2046       H  0.55069959  0.11494089  0.43120856     0.18700
H2047       H  0.58143565  0.15732651  0.47055718     0.18600
H2048       H  0.59043847  0.11658865  0.31578858     0.14500
C2049       C  0.58448455  0.35746938  0.54029796     0.29900
C2050       C  0.61130951  0.34168216  0.54084126    -0.36400
C2051       C  0.60968922  0.31179457  0.53081798     0.15900
C2052       C  0.58359133  0.29791103  0.52109204     0.21700
C2053       C  0.55648250  0.31353508  0.52119220    -0.34600
C2054       C  0.55810831  0.34365848  0.53104093     0.15800
O2055       O  0.58192796  0.38681644  0.54394844    -0.26600
C2056       C  0.55346271  0.39187184  0.53734016     0.05600
C2057       C  0.53760273  0.36586567  0.52923829    -0.31500
O2058       O  0.58814893  0.27056589  0.51009147    -0.23300
C2059       C  0.61763244  0.26720063  0.51270321    -0.03300
C2060       C  0.63187131  0.29210985  0.52583721    -0.17700
H2061       H  0.63237813  0.35252532  0.54671633     0.20300
H2062       H  0.53597561  0.30356338  0.51248022     0.18700
H2063       H  0.51521177  0.36422053  0.51992981     0.18600
H2064       H  0.65539058  0.29583183  0.53052586     0.14500
C2065       C  0.30753280  0.02394429  0.73728681     0.29900
C2066       C  0.28187352  0.04178438  0.73545520    -0.36400
C2067       C  0.25589699  0.02713091  0.72479097     0.15900
C2068       C  0.25541834  0.99719926  0.71621581     0.21700
C2069       C  0.28086142  0.97936346  0.71843135    -0.34600
C2070       C  0.30662356  0.99383434  0.72938541     0.15800
O2071       O  0.33471845  0.03322281  0.74472882    -0.26600
C2072       C  0.35118922  0.00861747  0.74175532     0.05600
C2073       C  0.33480933  0.98340382  0.73258057    -0.31500
O2074       O  0.22920174  0.98826664  0.70584060    -0.23300
C2075       C  0.21243758  0.01267845  0.70789865    -0.03300
C2076       C  0.22776127  0.03750477  0.71990326    -0.17700
H2077       H  0.28227545  0.06546840  0.74135740     0.20300
H2078       H  0.28070599  0.95593613  0.71158042     0.18700
H2079       H  0.34285590  0.96110917  0.72725020     0.18600
H2080       H  0.21944999  0.05996240  0.72389153     0.14500
C2081       C  0.67404866  0.02595541  0.71992368     0.29900
C2082       C  0.69916980  0.04345114  0.71197907    -0.36400
C2083       C  0.72464480  0.02752396  0.70313691     0.15900
C2084       C  0.72551190  0.99650080  0.70243987     0.21700
C2085       C  0.70037845  0.97894804  0.71035929    -0.34600
C2086       C  0.67485522  0.99489926  0.71911121     0.15800
O2087       O  0.64757645  0.03622723  0.72783413    -0.26600
C2088       C  0.63116286  0.01142984  0.73227253     0.05600
C2089       C  0.64706933  0.98504297  0.72730238    -0.31500
O2090       O  0.75236454  0.98636512  0.69586279    -0.23300
C2091       C  0.76894461  0.01118881  0.69178185    -0.03300
C2092       C  0.75270586  0.03747924  0.69611909    -0.17700
H2093       H  0.69891792  0.06781037  0.71277962     0.20300
H2094       H  0.70081593  0.95457695  0.71009570     0.18700
H2095       H  0.63896135  0.96198357  0.72835291     0.18600
H2096       H  0.76081154  0.06053919  0.69651235     0.14500
C2097       C  0.39334914  0.14056120  0.56777945     0.29900
C2098       C  0.41603136  0.11978264  0.57347742    -0.36400
C2099       C  0.41778219  0.10912277  0.60307685     0.15900
C2100       C  0.39874505  0.11846710  0.62563165     0.21700
C2101       C  0.37593834  0.13908460  0.61990367    -0.34600
C2102       C  0.37396361  0.14949436  0.59019659     0.15800
O2103       O  0.38700645  0.15260836  0.54147428    -0.26600
C2104       C  0.36298303  0.16914511  0.54697116     0.05600
C2105       C  0.35392305  0.16812670  0.57694993    -0.31500
O2106       O  0.40438127  0.10553409  0.65164729    -0.23300
C2107       C  0.42710926  0.08746564  0.64556547    -0.03300
C2108       C  0.43644396  0.08879078  0.61572219    -0.17700
H2109       H  0.43097812  0.11213085  0.55595823     0.20300
H2110       H  0.36055551  0.14616694  0.63728056     0.18700
H2111       H  0.33499482  0.17904099  0.58731065     0.18600
H2112       H  0.45440018  0.07662006  0.60499343     0.14500
C2113       C  0.58864282  0.14482762  0.56637930     0.29900
C2114       C  0.56280746  0.12798506  0.57393976    -0.36400
C2115       C  0.56269334  0.11465900  0.60267653     0.15900
C2116       C  0.58613522  0.11812693  0.62274906     0.21700
C2117       C  0.61195706  0.13466546  0.61509968    -0.34600
C2118       C  0.61227484  0.14751744  0.58629101     0.15800
O2119       O  0.59372832  0.15930785  0.54082134    -0.26600
C2120       C  0.62116030  0.17107738  0.54434677     0.05600
C2121       C  0.63367392  0.16435013  0.57223130    -0.31500
O2122       O  0.58147507  0.10379048  0.64833353    -0.23300
C2123       C  0.55490143  0.09042488  0.64451953    -0.03300
C2124       C  0.54210890  0.09643489  0.61655237    -0.17700
H2125       H  0.54421896  0.12526554  0.55845343     0.20300
H2126       H  0.63065352  0.13714949  0.63048708     0.18700
H2127       H  0.65530199  0.17122118  0.58108203     0.18600
H2128       H  0.52077526  0.08850825  0.60779771     0.14500
C2129       C  0.57349869  0.91892759  0.60514257     0.29900
C2130       C  0.57311592  0.90717158  0.57590087    -0.36400
C2131       C  0.59679847  0.88831794  0.56835369     0.15900
C2132       C  0.61959383  0.88131127  0.58800147     0.21700
C2133       C  0.61986126  0.89282042  0.61759969    -0.34600
C2134       C  0.59597814  0.91181553  0.62519947     0.15800
O2135       O  0.55326282  0.93689956  0.61682689    -0.26600
C2136       C  0.56267132  0.94127481  0.64491439     0.05600
C2137       C  0.58919035  0.92631396  0.65136784    -0.31500
O2138       O  0.64002432  0.86407222  0.57527199    -0.23300
C2139       C  0.62976284  0.85996388  0.54726882    -0.03300
C2140       C  0.60300530  0.87450114  0.54194669    -0.17700
H2141       H  0.55559348  0.91249269  0.56000295     0.20300
H2142       H  0.63746607  0.88758057  0.63345084     0.18700
H2143       H  0.60138527  0.92586766  0.67245606     0.18600
H2144       H  0.59026552  0.87567524  0.52133949     0.14500
C2145       C  0.37929894  0.86662474  0.58496255     0.29900
C2146       C  0.37991138  0.87554434  0.61526043    -0.36400
C2147       C  0.39971291  0.89912905  0.62264761     0.15900
C2148       C  0.41781922  0.91324183  0.60175313     0.21700
C2149       C  0.41751103  0.90403760  0.57129035    -0.34600
C2150       C  0.39769234  0.88013312  0.56388875     0.15800
O2151       O  0.36123628  0.84604522  0.57312045    -0.26600
C2152       C  0.36841018  0.84570198  0.54405606     0.05600
C2153       C  0.39103127  0.86641928  0.53696813    -0.31500
O2154       O  0.43442992  0.93502073  0.61399331    -0.23300
C2155       C  0.42679007  0.93459663  0.64308450    -0.03300
C2156       C  0.40528991  0.91271642  0.64958404    -0.17700
H2157       H  0.36560516  0.86503223  0.63192919     0.20300
H2158       H  0.43152980  0.91483601  0.55454821     0.18700
H2159       H  0.39998236  0.87175346  0.51496194     0.18600
H2160       H  0.39537113  0.90740295  0.67117262     0.14500
C2161       C  0.47761528  0.24840502  0.78322195     0.29900
C2162       C  0.45947881  0.22442078  0.77302784    -0.36400
C2163       C  0.47441063  0.19770016  0.76607550     0.15900
C2164       C  0.50504692  0.19498110  0.76875535     0.21700
C2165       C  0.52304729  0.21881982  0.77939909    -0.34600
C2166       C  0.50811220  0.24537831  0.78665395     0.15800
O2167       O  0.46868073  0.27586541  0.78923031    -0.26600
C2168       C  0.49367872  0.29059183  0.79698196     0.05600
C2169       C  0.51896736  0.27258892  0.79605550    -0.31500
O2170       O  0.51434994  0.16786189  0.76168594    -0.23300
C2171       C  0.48940055  0.15279990  0.75460472    -0.03300
C2172       C  0.46377056  0.17025684  0.75688666    -0.17700
H2173       H  0.43549184  0.22653246  0.77050765     0.20300
H2174       H  0.54704289  0.21678111  0.78183174     0.18700
H2175       H  0.54216231  0.27884592  0.79974379     0.18600
H2176       H  0.44065983  0.16339388  0.75349869     0.14500
C2177       C  0.48238167  0.77921538  0.79785198     0.29900
C2178       C  0.46418167  0.80403990  0.79207598    -0.36400
C2179       C  0.47813530  0.82853320  0.77773333     0.15900
C2180       C  0.50802449  0.82882568  0.76990483     0.21700
C2181       C  0.52617985  0.80391179  0.77548239    -0.34600
C2182       C  0.51218535  0.77936364  0.78971015     0.15800
O2183       O  0.47345345  0.75309199  0.80893560    -0.26600
C2184       C  0.49787460  0.73625534  0.80790890     0.05600
C2185       C  0.52265547  0.75157016  0.79631133    -0.31500
O2186       O  0.51670334  0.85469591  0.75802320    -0.23300
C2187       C  0.49191750  0.87103059  0.75788752    -0.03300
C2188       C  0.46722589  0.85578869  0.76972985    -0.17700
H2189       H  0.44068531  0.80410069  0.79797379     0.20300
H2190       H  0.54953338  0.80361908  0.76905400     0.18700
H2191       H  0.54455984  0.74267975  0.79135789     0.18600
H2192       H  0.44488104  0.86419277  0.77341485     0.14500
C2193       C  0.35784644  0.13074269  0.90412623     0.29900
C2194       C  0.36936314  0.13306564  0.87491786    -0.36400
C2195       C  0.38892722  0.11028794  0.86618483     0.15900
C2196       C  0.39697011  0.08707484  0.88502488     0.21700
C2197       C  0.38494956  0.08442656  0.91405051    -0.34600
C2198       C  0.36498486  0.10695395  0.92262353     0.15800
O2199       O  0.34057882  0.15045098  0.91749798    -0.26600
C2200       C  0.33623808  0.13890769  0.94472024     0.05600
C2201       C  0.35054659  0.11167708  0.94912730    -0.31500
O2202       O  0.41592730  0.06847260  0.87227864    -0.23300
C2203       C  0.41973282  0.07973848  0.84482538    -0.03300
C2204       C  0.40339870  0.10567646  0.83972584    -0.17700
H2205       H  0.36372940  0.15151041  0.86017800     0.20300
H2206       H  0.39089781  0.06621896  0.92895108     0.18700
H2207       H  0.35161129  0.09830054  0.96941647     0.18600
H2208       H  0.40215969  0.11896468  0.81938312     0.14500
C2209       C  0.34630399  0.90076778  0.90403648     0.29900
C2210       C  0.35594985  0.90003244  0.87396292    -0.36400
C2211       C  0.37764658  0.92155064  0.86571637     0.15900
C2212       C  0.38945293  0.94238883  0.88570795     0.21700
C2213       C  0.37950348  0.94339568  0.91592985    -0.34600
C2214       C  0.35739749  0.92188957  0.92416404     0.15800
O2215       O  0.32714646  0.88169390  0.91648360    -0.26600
C2216       C  0.32515841  0.89073967  0.94504068     0.05600
C2217       C  0.34356528  0.91578571  0.95116618    -0.31500
O2218       O  0.41042027  0.95963772  0.87313485    -0.23300
C2219       C  0.41189050  0.94969337  0.84469013    -0.03300
C2220       C  0.39178329  0.92615949  0.83890950    -0.17700
H2221       H  0.34741022  0.88342241  0.85812225     0.20300
H2222       H  0.38861005  0.95952604  0.93195696     0.18700
H2223       H  0.34735960  0.92683889  0.97264573     0.18600
H2224       H  0.38838939  0.91389115  0.81802818     0.14500
C2225       C  0.62386565  0.88805656  0.90125913     0.29900
C2226       C  0.60986885  0.88486586  0.87309328    -0.36400
C2227       C  0.59260668  0.90934331  0.86385400     0.15900
C2228       C  0.58907670  0.93486629  0.88134287     0.21700
C2229       C  0.60331666  0.93810054  0.90925393    -0.34600
C2230       C  0.62081205  0.91390733  0.91828173     0.15800
O2231       O  0.64006969  0.86770813  0.91497400    -0.26600
C2232       C  0.64760704  0.88089971  0.94093155     0.05600
C2233       C  0.63643339  0.90976046  0.94408063    -0.31500
O2234       O  0.57171749  0.95488563  0.86863021    -0.23300
C2235       C  0.56424823  0.94225658  0.84247957    -0.03300
C2236       C  0.57667044  0.91394098  0.83816083    -0.17700
H2237       H  0.61211386  0.86472171  0.85949321     0.20300
H2238       H  0.60081303  0.95806578  0.92304689     0.18700
H2239       H  0.63815555  0.92499889  0.96308186     0.18600
H2240       H  0.57434727  0.89906693  0.81887950     0.14500
C2241       C  0.58663938  0.08843134  0.88442638     0.29900
C2242       C  0.59761037  0.08564756  0.91382504    -0.36400
C2243       C  0.61481434  0.10997056  0.92457295     0.15900
C2244       C  0.62029403  0.13552388  0.90779158     0.21700
C2245       C  0.60985008  0.13805743  0.87812084    -0.34600
C2246       C  0.59312160  0.11345082  0.86713588     0.15800
O2247       O  0.56976096  0.06853729  0.87012864    -0.26600
C2248       C  0.56570128  0.08072344  0.84319693     0.05600
C2249       C  0.57995968  0.10855503  0.83984301    -0.31500
O2250       O  0.63657907  0.15566432  0.92248169    -0.23300
C2251       C  0.64204008  0.14265608  0.94880598    -0.03300
C2252       C  0.62929648  0.11402321  0.95125237    -0.17700
H2253       H  0.59310260  0.06586511  0.92731862     0.20300
H2254       H  0.61453731  0.15775417  0.86456043     0.18700
H2255       H  0.58008277  0.12319715  0.82040334     0.18600
H2256       H  0.63074835  0.09818827  0.96954858     0.14500
loop_ 
_geom_bond_atom_site_label_1 
_geom_bond_atom_site_label_2 
_geom_bond_distance 
_geom_bond_site_symmetry_2 
_ccdc_geom_bond_type 
O1          Zr37   2.442       .  S
O1           C12   1.293       .  A
O2          Zr36   2.454       .  S
O2           C13   1.294       .  A
O3           Zr9   2.464       .  S
O3           C14   1.297       .  A
O4           Zr9   2.457       .  S
O4           C15   1.295       .  A
O5          Zr39   2.429       .  S
O5           C15   1.290       .  A
O6          Zr38   2.427       .  S
O6           C14   1.290   1_565  A
O7           Zr9   2.439       .  S
O7           C13   1.292       .  A
O8           Zr9   2.424       .  S
O8           C12   1.290       .  A
Zr9          O10   2.333       .  S
Zr9          O11   2.348       .  S
Zr9          O19   2.348       .  S
Zr9          O17   2.342       .  S
O10         Zr36   2.342       .  S
O10         Zr39   2.336       .  S
O11         Zr37   2.346       .  S
O11         Zr38   2.341   1_545  S
C12        C2248   1.461       .  S
C13        C2123   1.475       .  S
C14        C2088   1.475       .  S
C15        C2171   1.470       .  S
H16          O17   0.967       .  S
O17         Zr36   2.328       .  S
O17         Zr38   2.347   1_545  S
H18          O19   0.967       .  S
O19         Zr37   2.340       .  S
O19         Zr39   2.344       .  S
O20         Zr36   2.440   1_565  S
O20          C43   1.291       .  A
O21         Zr37   2.455   1_565  S
O21          C44   1.294       .  A
O22         Zr38   2.426       .  S
O22          C45   1.289       .  A
O23         Zr39   2.436       .  S
O23          C46   1.291       .  A
O24         Zr39   2.433       .  S
O24          C47   1.291       .  A
O25         Zr38   2.424       .  S
O25          C48   1.289       .  A
O26         Zr40   2.438       .  S
O26          C49   1.292       .  A
O27         Zr40   2.421       .  S
O27          C50   1.290   1_565  A
O28         Zr38   2.444       .  S
O28          C49   1.292       .  A
O29         Zr39   2.443       .  S
O29          C50   1.292       .  A
O30         Zr36   2.455   1_565  S
O30          C45   1.295       .  A
O31         Zr37   2.452   1_565  S
O31          C48   1.294       .  A
O32         Zr37   2.440       .  S
O32          C47   1.292       .  A
O33         Zr36   2.426       .  S
O33          C46   1.290       .  A
O34         Zr40   2.458       .  S
O34          C43   1.297       .  A
O35         Zr40   2.463       .  S
O35          C44   1.298       .  A
Zr36         O42   2.349   1_545  S
Zr36         O54   2.351       .  S
Zr37         O41   2.339       .  S
Zr37         O52   2.337   1_545  S
Zr38         O42   2.333       .  S
Zr38         O52   2.343       .  S
Zr39         O41   2.329       .  S
Zr39         O54   2.349       .  S
Zr40         O41   2.336   1_565  S
Zr40         O42   2.339       .  S
Zr40         O54   2.352   1_565  S
Zr40         O52   2.340       .  S
C43        C2155   1.479       .  S
C44        C2219   1.488       .  S
C45        C2136   1.471       .  S
C46        C2107   1.464       .  S
C47        C2203   1.465       .  S
C48        C2235   1.465       .  S
C49        C2187   1.471       .  S
C50        C2072   1.463       .  S
H51          O52   0.967       .  S
H53          O54   0.968       .  S
C55          C56   1.538       .  S
C55          C61   1.517       .  S
C55          C59   1.534       .  S
C55        C2024   1.511       .  S
C56          H63   1.086       .  S
C56          C57   1.370       .  D
C57          C58   1.542       .  S
C57        C2120   1.488       .  S
C58          C62   1.551       .  S
C58          C60   1.553       .  S
C58          H64   1.111       .  S
C59          H65   1.085       .  S
C59          C60   1.366       .  D
C60        C2040   1.485       .  S
C61          H66   1.085       .  S
C61          C62   1.365       .  D
C62        C2059   1.483       .  S
O67        Zr103   2.432       .  S
O67          C78   1.290       .  A
O68        Zr102   2.447       .  S
O68          C79   1.293       .  A
O69         Zr75   2.421       .  S
O69          C80   1.290       .  A
O70         Zr75   2.439   1_565  S
O70          C81   1.291       .  A
O71        Zr105   2.442       .  S
O71          C81   1.293       .  A
O72        Zr104   2.435       .  S
O72          C80   1.292       .  A
O73         Zr75   2.444   1_565  S
O73          C79   1.293       .  A
O74         Zr75   2.468       .  S
O74          C78   1.297       .  A
Zr75         O76   2.346   1_545  S
Zr75         O77   2.336       .  S
Zr75         O85   2.331       .  S
Zr75         O83   2.348       .  S
O76        Zr102   2.347       .  S
O76        Zr105   2.337       .  S
O77        Zr103   2.328       .  S
O77        Zr104   2.339       .  S
C78        C2043   1.483       .  S
C79        C1883   1.473       .  S
C80        C1915   1.461       .  S
C81        C1899   1.467       .  S
H82          O83   0.970       .  S
O83        Zr102   2.340   1_545  S
O83        Zr104   2.346       .  S
H84          O85   0.970       .  S
O85        Zr103   2.348       .  S
O85        Zr105   2.350   1_545  S
O86        Zr102   2.452       .  S
O86         C109   1.294       .  A
O87        Zr103   2.435       .  S
O87         C110   1.291       .  A
O88        Zr104   2.464       .  S
O88         C111   1.296       .  A
O89        Zr105   2.444       .  S
O89         C112   1.292       .  A
O90        Zr105   2.445       .  S
O90         C113   1.293   1_565  A
O91        Zr104   2.445       .  S
O91         C114   1.294       .  A
O92        Zr106   2.441       .  S
O92         C115   1.292       .  A
O93        Zr106   2.430   1_565  S
O93         C116   1.289       .  A
O94        Zr104   2.449       .  S
O94         C115   1.294       .  A
O95        Zr105   2.438       .  S
O95         C116   1.292       .  A
O96        Zr102   2.436       .  S
O96         C111   1.291   1_565  A
O97        Zr103   2.440       .  S
O97         C114   1.292       .  A
O98        Zr103   2.432       .  S
O98         C113   1.291       .  A
O99        Zr102   2.421       .  S
O99         C112   1.289       .  A
O100       Zr106   2.425   1_565  S
O100        C109   1.289       .  A
O101       Zr106   2.459       .  S
O101        C110   1.295       .  A
Zr102       O108   2.333   1_565  S
Zr102       O120   2.348       .  S
Zr103       O107   2.338       .  S
Zr103       O118   2.349       .  S
Zr104       O108   2.328       .  S
Zr104       O118   2.354       .  S
Zr105       O107   2.341   1_565  S
Zr105       O120   2.347       .  S
Zr106       O107   2.340       .  S
Zr106       O108   2.345       .  S
Zr106       O120   2.345   1_545  S
Zr106       O118   2.329       .  S
C109       C1995   1.464       .  S
C110       C1963   1.480       .  S
C111       C1851   1.480       .  S
C112       C1947   1.461       .  S
C113       C1864   1.464       .  S
C114       C1931   1.472       .  S
C115       C2008   1.476       .  S
C116       C1976   1.459       .  S
H117        O118   0.969       .  S
H119        O120   0.969       .  S
C121        C122   1.539       .  S
C121        C127   1.521       .  S
C121        C125   1.528   1_556  S
C121       C1819   1.511       .  S
C122        H129   1.085       .  S
C122        C123   1.372       .  D
C123        C124   1.554       .  S
C123       C2216   1.495       .  S
C124        C128   1.562   1_556  S
C124        C126   1.539   1_556  S
C124        H130   1.111   1_556  S
C125        H131   1.086       .  S
C125        C126   1.367       .  D
C126       C1992   1.473       .  S
C127        H132   1.086   1_556  S
C127        C128   1.362   1_556  D
C128       C1835   1.497       .  S
C133        C134   1.529   1_556  S
C133        C139   1.527       .  S
C133        C137   1.530       .  S
C133       C1784   1.497       .  S
C134        H141   1.086       .  S
C134        C135   1.365       .  D
C135        C136   1.539   1_554  S
C135       C1979   1.464       .  S
C136        C140   1.538       .  S
C136        C138   1.539       .  S
C136        H142   1.107       .  S
C137        H143   1.086       .  S
C137        C138   1.363       .  D
C138       C2232   1.467       .  S
C139        H144   1.087       .  S
C139        C140   1.365       .  D
C140       C1800   1.477   1_556  S
C145        C146   1.531       .  S
C145        C151   1.522       .  S
C145        C149   1.541       .  S
C145       C1752   1.499       .  S
C146        H153   1.086       .  S
C146        C147   1.364       .  D
C147        C148   1.542       .  S
C147       C1896   1.472       .  S
C148        C152   1.539       .  S
C148        C150   1.543       .  S
C148        H154   1.108       .  S
C149        H155   1.086       .  S
C149        C150   1.367       .  D
C150       C2139   1.478       .  S
C151        H156   1.087       .  S
C151        C152   1.363       .  D
C152       C1771   1.478       .  S
C157        C158   1.533   1_556  S
C157        C163   1.529       .  S
C157        C161   1.532       .  S
C157       C1723   1.507       .  S
C158        H165   1.086       .  S
C158        C159   1.365       .  D
C159        C160   1.538   1_554  S
C159       C2011   1.471       .  S
C160        C164   1.542       .  S
C160        C162   1.537       .  S
C160        H166   1.110       .  S
C161        H167   1.086       .  S
C161        C162   1.365       .  D
C162       C2200   1.465       .  S
C163        H168   1.086       .  S
C163        C164   1.368       .  D
C164       C1739   1.479       .  S
C169        C170   1.535       .  S
C169        C175   1.527       .  S
C169        C173   1.542   1_556  S
C169       C1688   1.509       .  S
C170        H177   1.086       .  S
C170        C171   1.366       .  D
C171        C172   1.537       .  S
C171       C2251   1.472       .  S
C172        C176   1.546       .  S
C172        C174   1.543   1_556  S
C172        H178   1.110       .  S
C173        H179   1.085       .  S
C173        C174   1.367       .  D
C174       C1960   1.480       .  S
C175        H180   1.087       .  S
C175        C176   1.361       .  D
C176       C1707   1.480       .  S
C181        C182   1.532       .  S
C181        C187   1.523       .  S
C181        C185   1.538       .  S
C181       C1659   1.508       .  S
C182        H189   1.086       .  S
C182        C183   1.365       .  D
C183        C184   1.538       .  S
C183       C1912   1.470       .  S
C184        C188   1.544       .  S
C184        C186   1.542       .  S
C184        H190   1.111       .  S
C185        H191   1.086       .  S
C185        C186   1.371       .  D
C186       C2104   1.478       .  S
C187        H192   1.087       .  S
C187        C188   1.364       .  D
C188       C1675   1.477       .  S
C193        C194   1.531       .  S
C193        C199   1.518       .  S
C193        C197   1.541       .  S
C193       C1624   1.504       .  S
C194        H201   1.086       .  S
C194        C195   1.369       .  D
C195        C196   1.552       .  S
C195       C2152   1.482       .  S
C196        C200   1.555       .  S
C196        C198   1.540       .  S
C196        H202   1.111       .  S
C197        H203   1.085       .  S
C197        C198   1.367       .  D
C198       C1880   1.483       .  S
C199        H204   1.085       .  S
C199        C200   1.362       .  D
C200       C1640   1.488       .  S
O205       Zr241   2.431       .  S
O205        C216   1.289       .  A
O206       Zr240   2.442       .  S
O206        C217   1.292   1_455  A
O207       Zr213   2.417       .  S
O207        C218   1.288       .  A
O208       Zr213   2.431       .  S
O208        C219   1.291       .  A
O209       Zr243   2.457       .  S
O209        C219   1.295       .  A
O210       Zr242   2.444       .  S
O210        C218   1.293       .  A
O211       Zr213   2.435       .  S
O211        C217   1.290       .  A
O212       Zr213   2.432       .  S
O212        C216   1.291       .  A
Zr213       O214   2.336       .  S
Zr213       O215   2.341       .  S
Zr213       O223   2.342       .  S
Zr213       O221   2.346       .  S
O214       Zr240   2.335   1_655  S
O214       Zr243   2.350       .  S
O215       Zr241   2.330       .  S
O215       Zr242   2.346       .  S
C216       C1755   1.463       .  S
C217       C1480   1.469       .  S
C218       C1528   1.460       .  S
C219       C1592   1.472       .  S
H220        O221   0.967       .  S
O221       Zr240   2.337   1_655  S
O221       Zr242   2.344       .  S
H222        O223   0.967       .  S
O223       Zr241   2.342       .  S
O223       Zr243   2.343       .  S
O224       Zr240   2.430       .  S
O224        C247   1.290       .  A
O225       Zr241   2.409       .  S
O225        C248   1.287       .  A
O226       Zr242   2.442   1_455  S
O226        C249   1.292       .  A
O227       Zr243   2.435   1_455  S
O227        C250   1.292       .  A
O228       Zr243   2.434       .  S
O228        C251   1.292       .  A
O229       Zr242   2.453       .  S
O229        C252   1.295       .  A
O230       Zr244   2.441       .  S
O230        C253   1.293       .  A
O231       Zr244   2.448       .  S
O231        C254   1.294       .  A
O232       Zr242   2.449   1_455  S
O232        C253   1.294       .  A
O233       Zr243   2.479   1_455  S
O233        C254   1.299       .  A
O234       Zr240   2.443       .  S
O234        C249   1.293       .  A
O235       Zr241   2.444       .  S
O235        C252   1.292       .  A
O236       Zr241   2.434       .  S
O236        C251   1.291       .  A
O237       Zr240   2.433       .  S
O237        C250   1.291       .  A
O238       Zr244   2.443       .  S
O238        C247   1.293       .  A
O239       Zr244   2.458       .  S
O239        C248   1.295   1_455  A
Zr240       O246   2.331       .  S
Zr240       O258   2.354       .  S
Zr241       O245   2.342       .  S
Zr241       O256   2.345       .  S
Zr242       O246   2.337   1_655  S
Zr242       O256   2.338       .  S
Zr243       O245   2.339       .  S
Zr243       O258   2.336   1_655  S
Zr244       O245   2.332   1_455  S
Zr244       O246   2.338       .  S
Zr244       O258   2.345       .  S
Zr244       O256   2.353   1_455  S
C247       C1627   1.467       .  S
C248       C1467   1.464       .  S
C249       C1515   1.471       .  S
C250       C1608   1.463       .  S
C251       C1576   1.465       .  S
C252       C1547   1.479       .  S
C253       C1499   1.476       .  S
C254       C1560   1.492       .  S
H255        O256   0.968       .  S
H257        O258   0.967       .  S
O259       Zr295   2.434       .  S
O259        C270   1.291       .  A
O260       Zr294   2.425       .  S
O260        C271   1.290   1_455  A
O261       Zr267   2.429       .  S
O261        C272   1.290       .  A
O262       Zr267   2.436       .  S
O262        C273   1.292       .  A
O263       Zr297   2.417       .  S
O263        C273   1.288       .  A
O264       Zr296   2.479       .  S
O264        C272   1.299       .  A
O265       Zr267   2.429       .  S
O265        C271   1.289       .  A
O266       Zr267   2.449       .  S
O266        C270   1.294       .  A
Zr267       O268   2.344       .  S
Zr267       O269   2.336       .  S
Zr267       O277   2.335       .  S
Zr267       O275   2.338       .  S
O268       Zr294   2.337   1_655  S
O268       Zr297   2.332       .  S
O269       Zr295   2.348       .  S
O269       Zr296   2.331       .  S
C270       C2027   1.473       .  S
C271       C1323   1.460       .  S
C272       C1416   1.484       .  S
C273       C1355   1.458       .  S
H274        O275   0.960       .  S
O275       Zr294   2.348   1_655  S
O275       Zr296   2.341       .  S
H276        O277   0.959       .  S
O277       Zr295   2.346       .  S
O277       Zr297   2.353       .  S
O278       Zr294   2.436       .  S
O278        C301   1.292       .  A
O279       Zr295   2.460       .  S
O279        C302   1.296       .  A
O280       Zr296   2.445   1_455  S
O280        C303   1.294       .  A
O281       Zr297   2.475   1_455  S
O281        C304   1.298       .  A
O282       Zr297   2.454       .  S
O282        C305   1.295       .  A
O283       Zr296   2.440       .  S
O283        C306   1.293       .  A
O284       Zr298   2.437       .  S
O284        C307   1.293       .  A
O285       Zr298   2.435       .  S
O285        C308   1.291       .  A
O286       Zr296   2.432   1_455  S
O286        C307   1.291       .  A
O287       Zr297   2.429   1_455  S
O287        C308   1.290       .  A
O288       Zr294   2.433       .  S
O288        C303   1.291       .  A
O289       Zr295   2.444       .  S
O289        C306   1.293       .  A
O290       Zr295   2.435       .  S
O290        C305   1.291       .  A
O291       Zr294   2.446       .  S
O291        C304   1.294       .  A
O292       Zr298   2.445       .  S
O292        C301   1.292       .  A
O293       Zr298   2.439       .  S
O293        C302   1.291   1_455  A
Zr294       O300   2.333       .  S
Zr294       O312   2.336       .  S
Zr295       O299   2.342       .  S
Zr295       O310   2.331       .  S
Zr296       O300   2.344   1_655  S
Zr296       O310   2.363       .  S
Zr297       O299   2.345       .  S
Zr297       O312   2.348   1_655  S
Zr298       O299   2.338   1_455  S
Zr298       O300   2.338       .  S
Zr298       O312   2.342       .  S
Zr298       O310   2.342   1_455  S
C301       C1656   1.474       .  S
C302       C1304   1.481       .  S
C303       C1400   1.470       .  S
C304       C1368   1.489       .  S
C305       C1339   1.470       .  S
C306       C1432   1.470       .  S
C307       C1451   1.464       .  S
C308       C1387   1.461       .  S
H309        O310   0.960       .  S
H311        O312   0.960       .  S
C313        C314   1.534       .  S
C313        C319   1.525       .  S
C313        C317   1.538       .  S
C313       C1272   1.497       .  S
C314        H321   1.086       .  S
C314        C315   1.365       .  D
C315        C316   1.537       .  S
C315       C1352   1.470       .  S
C316        C320   1.536       .  S
C316        C318   1.537       .  S
C316        H322   1.109       .  S
C317        H323   1.086       .  S
C317        C318   1.365       .  D
C318       C1531   1.469       .  S
C319        H324   1.087       .  S
C319        C320   1.362       .  D
C320       C1291   1.472       .  S
C325        C326   1.538       .  S
C325        C331   1.518       .  S
C325        C329   1.540       .  S
C325       C1243   1.509       .  S
C326        H333   1.086       .  S
C326        C327   1.369       .  D
C327        C328   1.544       .  S
C327       C1512   1.479       .  S
C328        C332   1.554       .  S
C328        C330   1.553       .  S
C328        H334   1.109       .  S
C329        H335   1.086       .  S
C329        C330   1.372       .  D
C330       C1371   1.496       .  S
C331        H336   1.088       .  S
C331        C332   1.355       .  D
C332       C1256   1.481       .  S
C337        C338   1.535   1_545  S
C337        C343   1.521       .  S
C337        C341   1.533       .  S
C337       C1867   1.495       .  S
C338        H345   1.086       .  S
C338        C339   1.367       .  D
C339        C340   1.533   1_565  S
C339       C1579   1.461       .  S
C340        C344   1.535       .  S
C340        C342   1.537       .  S
C340        H346   1.111       .  S
C341        H347   1.086       .  S
C341        C342   1.366       .  D
C342       C1435   1.474       .  S
C343        H348   1.087       .  S
C343        C344   1.363       .  D
C344       C1224   1.466       .  S
C349        C350   1.534       .  S
C349        C355   1.521       .  S
C349        C353   1.534   1_545  S
C349       C2091   1.512       .  S
C350        H357   1.085       .  S
C350        C351   1.366       .  D
C351        C352   1.551       .  S
C351       C1419   1.485       .  S
C352        C356   1.557       .  S
C352        C354   1.548   1_545  S
C352        H358   1.110       .  S
C353        H359   1.086       .  S
C353        C354   1.367       .  D
C354       C1595   1.482       .  S
C355        H360   1.084       .  S
C355        C356   1.367       .  D
C356       C1208   1.500   1_545  S
C361        C362   1.534       .  S
C361        C367   1.523       .  S
C361        C365   1.535       .  S
C361       C1176   1.509       .  S
C362        H369   1.085       .  S
C362        C363   1.370       .  D
C363        C364   1.550       .  S
C363       C1544   1.491       .  S
C364        C368   1.550       .  S
C364        C366   1.543       .  S
C364        H370   1.110       .  S
C365        H371   1.086       .  S
C365        C366   1.370       .  D
C366       C1336   1.482       .  S
C367        H372   1.087       .  S
C367        C368   1.362       .  D
C368       C1195   1.479       .  S
C373        C374   1.533       .  S
C373        C379   1.525       .  S
C373        C377   1.540       .  S
C373       C1144   1.506       .  S
C374        H381   1.087       .  S
C374        C375   1.365       .  D
C375        C376   1.535       .  S
C375       C1384   1.463       .  S
C376        C380   1.535       .  S
C376        C378   1.542       .  S
C376        H382   1.110       .  S
C377        H383   1.086       .  S
C377        C378   1.370       .  D
C378       C1496   1.481       .  S
C379        H384   1.086       .  S
C379        C380   1.366       .  D
C380       C1163   1.476       .  S
C385        C386   1.537       .  S
C385        C391   1.526       .  S
C385        C389   1.538   1_545  S
C385       C1848   1.514       .  S
C386        H393   1.086       .  S
C386        C387   1.367       .  D
C387        C388   1.544       .  S
C387       C1448   1.479       .  S
C388        C392   1.553       .  S
C388        C390   1.550   1_545  S
C388        H394   1.110       .  S
C389        H395   1.086       .  S
C389        C390   1.370       .  D
C390       C1563   1.489       .  S
C391        H396   1.087       .  S
C391        C392   1.361       .  D
C392       C1128   1.487       .  S
C397        C398   1.538   1_545  S
C397        C403   1.528       .  S
C397        C401   1.536       .  S
C397       C2075   1.501       .  S
C398        H405   1.085       .  S
C398        C399   1.366       .  D
C399        C400   1.538   1_565  S
C399       C1611   1.473       .  S
C400        C404   1.536       .  S
C400        C402   1.539       .  S
C400        H406   1.111       .  S
C401        H407   1.086       .  S
C401        C402   1.366       .  D
C402       C1403   1.478       .  S
C403        H408   1.087       .  S
C403        C404   1.364       .  D
C404       C1112   1.471       .  S
O409       Zr445   2.440       .  S
O409        C420   1.292       .  A
O410       Zr444   2.441       .  S
O410        C421   1.292       .  A
O411       Zr417   2.439       .  S
O411        C422   1.291       .  A
O412       Zr417   2.430       .  S
O412        C423   1.291       .  A
O413       Zr447   2.442   1_554  S
O413        C423   1.292       .  A
O414       Zr446   2.447   1_554  S
O414        C422   1.293       .  A
O415       Zr417   2.428       .  S
O415        C421   1.290       .  A
O416       Zr417   2.435       .  S
O416        C420   1.291   1_554  A
Zr417       O418   2.337       .  S
Zr417       O419   2.329   1_554  S
Zr417       O427   2.342   1_554  S
Zr417       O425   2.339       .  S
O418       Zr444   2.335       .  S
O418       Zr447   2.330   1_554  S
O419       Zr445   2.342       .  S
O419       Zr446   2.335       .  S
C420       C1787   1.469       .  S
C421       C1179   1.468       .  S
C422       C1000   1.469       .  S
C423       C1096   1.465       .  S
H424        O425   0.961       .  S
O425       Zr444   2.340       .  S
O425       Zr446   2.348   1_554  S
H426        O427   0.962       .  S
O427       Zr445   2.328       .  S
O427       Zr447   2.349       .  S
O428       Zr444   2.437       .  S
O428        C451   1.291   1_554  A
O429       Zr445   2.434       .  S
O429        C452   1.292       .  A
O430       Zr446   2.430   1_554  S
O430        C453   1.290       .  A
O431       Zr447   2.443   1_554  S
O431        C454   1.293       .  A
O432       Zr447   2.441       .  S
O432        C455   1.292       .  A
O433       Zr446   2.419       .  S
O433        C456   1.288       .  A
O434       Zr448   2.439       .  S
O434        C457   1.292       .  A
O435       Zr448   2.433       .  S
O435        C458   1.290       .  A
O436       Zr446   2.454       .  S
O436        C457   1.294       .  A
O437       Zr447   2.430       .  S
O437        C458   1.291       .  A
O438       Zr444   2.434       .  S
O438        C453   1.291       .  A
O439       Zr445   2.419       .  S
O439        C456   1.289       .  A
O440       Zr445   2.452       .  S
O440        C455   1.295       .  A
O441       Zr444   2.433       .  S
O441        C454   1.291       .  A
O442       Zr448   2.429       .  S
O442        C451   1.290       .  A
O443       Zr448   2.422       .  S
O443        C452   1.288       .  A
Zr444       O450   2.340   1_554  S
Zr444       O462   2.336   1_554  S
Zr445       O449   2.329       .  S
Zr445       O460   2.342       .  S
Zr446       O450   2.336       .  S
Zr446       O460   2.349       .  S
Zr447       O449   2.335       .  S
Zr447       O462   2.351       .  S
Zr448       O449   2.341       .  S
Zr448       O450   2.337       .  S
Zr448       O462   2.335       .  S
Zr448       O460   2.330       .  S
C451       C1691   1.467       .  S
C452       C1275   1.461       .  S
C453        C987   1.460       .  S
C454       C1048   1.469       .  S
C455       C1080   1.477       .  S
C456       C1019   1.449       .  S
C457       C1032   1.475       .  S
C458       C1067   1.460       .  S
H459        O460   0.962       .  S
H461        O462   0.961       .  S
O463       Zr499   2.446       .  S
O463        C474   1.293       .  A
O464       Zr498   2.461       .  S
O464        C475   1.296       .  A
O465       Zr471   2.447       .  S
O465        C476   1.294       .  A
O466       Zr471   2.472       .  S
O466        C477   1.298       .  A
O467       Zr501   2.443   1_554  S
O467        C477   1.293       .  A
O468       Zr500   2.447   1_554  S
O468        C476   1.293       .  A
O469       Zr471   2.419       .  S
O469        C475   1.289       .  A
O470       Zr471   2.445       .  S
O470        C474   1.294   1_554  A
Zr471       O472   2.343       .  S
Zr471       O473   2.346   1_554  S
Zr471       O481   2.337   1_554  S
Zr471       O479   2.354       .  S
O472       Zr498   2.343       .  S
O472       Zr501   2.337   1_554  S
O473       Zr499   2.343       .  S
O473       Zr500   2.349       .  S
C474       C1816   1.474       .  S
C475       C1147   1.469       .  S
C476        C891   1.476       .  S
C477        C952   1.487       .  S
H478        O479   0.968       .  S
O479       Zr498   2.349       .  S
O479       Zr500   2.336   1_554  S
H480        O481   0.967       .  S
O481       Zr499   2.353       .  S
O481       Zr501   2.333       .  S
O482       Zr498   2.462       .  S
O482        C505   1.296   1_554  A
O483       Zr499   2.451       .  S
O483        C506   1.294       .  A
O484       Zr500   2.459   1_554  S
O484        C507   1.295       .  A
O485       Zr501   2.459   1_554  S
O485        C508   1.295       .  A
O486       Zr501   2.426       .  S
O486        C509   1.290       .  A
O487       Zr500   2.454       .  S
O487        C510   1.294       .  A
O488       Zr502   2.437       .  S
O488        C511   1.291       .  A
O489       Zr502   2.440       .  S
O489        C512   1.291       .  A
O490       Zr500   2.432       .  S
O490        C511   1.291       .  A
O491       Zr501   2.430       .  S
O491        C512   1.291       .  A
O492       Zr498   2.434       .  S
O492        C507   1.292       .  A
O493       Zr499   2.452       .  S
O493        C510   1.294       .  A
O494       Zr499   2.430       .  S
O494        C509   1.291       .  A
O495       Zr498   2.428       .  S
O495        C508   1.290       .  A
O496       Zr502   2.427       .  S
O496        C505   1.290       .  A
O497       Zr502   2.436       .  S
O497        C506   1.292       .  A
Zr498       O504   2.339   1_554  S
Zr498       O516   2.344   1_554  S
Zr499       O503   2.339       .  S
Zr499       O514   2.342       .  S
Zr500       O504   2.350       .  S
Zr500       O514   2.336       .  S
Zr501       O503   2.349       .  S
Zr501       O516   2.323       .  S
Zr502       O503   2.331       .  S
Zr502       O504   2.340       .  S
Zr502       O516   2.345       .  S
Zr502       O514   2.346       .  S
C505       C1720   1.470       .  S
C506       C1240   1.473       .  S
C507        C875   1.477       .  S
C508        C968   1.471       .  S
C509        C939   1.460       .  S
C510        C907   1.477       .  S
C511        C856   1.466       .  S
C512        C920   1.463       .  S
H513        O514   0.969       .  S
H515        O516   0.967       .  S
C517        C518   1.541   1_655  S
C517        C523   1.517   1_655  S
C517        C521   1.537       .  S
C517       C1483   1.506       .  S
C518        H525   1.086       .  S
C518        C519   1.373       .  D
C519        C520   1.541   1_455  S
C519        C904   1.483       .  S
C520        C524   1.548   1_655  S
C520        C522   1.545       .  S
C520        H526   1.109       .  S
C521        H527   1.084       .  S
C521        C522   1.364       .  D
C522       C1083   1.483       .  S
C523        H528   1.088       .  S
C523        C524   1.356       .  D
C524        C843   1.468       .  S
C529        C530   1.529       .  S
C529        C535   1.521       .  S
C529        C533   1.536   1_655  S
C529       C1320   1.499       .  S
C530        H537   1.085       .  S
C530        C531   1.366       .  D
C531        C532   1.543       .  S
C531       C1064   1.476       .  S
C532        C536   1.538       .  S
C532        C534   1.538   1_655  S
C532        H538   1.111       .  S
C533        H539   1.086       .  S
C533        C534   1.368       .  D
C534        C859   1.470       .  S
C535        H540   1.087       .  S
C535        C536   1.364       .  D
C536        C827   1.471       .  S
C541        C542   1.534       .  S
C541        C547   1.526       .  S
C541        C545   1.532       .  S
C541       C2184   1.504       .  S
C542        H549   1.086       .  S
C542        C543   1.370       .  D
C543        C544   1.538       .  S
C543        C936   1.474       .  S
C544        C548   1.544       .  S
C544        C546   1.535       .  S
C544        H550   1.110       .  S
C545        H551   1.086       .  S
C545        C546   1.364       .  D
C546       C1016   1.462       .  S
C547        H552   1.087       .  S
C547        C548   1.363       .  D
C548        C808   1.479       .  S
C553        C554   1.528       .  S
C553        C559   1.524       .  S
C553        C557   1.532       .  S
C553       C1944   1.501       .  S
C554        H561   1.086       .  S
C554        C555   1.362       .  D
C555        C556   1.540       .  S
C555       C1003   1.469       .  S
C556        C560   1.553       .  S
C556        C558   1.550       .  S
C556        H562   1.111       .  S
C557        H563   1.086       .  S
C557        C558   1.370       .  D
C558        C955   1.486       .  S
C559        H564   1.086       .  S
C559        C560   1.367       .  D
C560        C792   1.491       .  S
C565        C566   1.535   1_655  S
C565        C571   1.518       .  S
C565        C569   1.537       .  S
C565       C1307   1.513       .  S
C566        H573   1.086       .  S
C566        C567   1.370       .  D
C567        C568   1.549   1_455  S
C567        C872   1.486       .  S
C568        C572   1.550       .  S
C568        C570   1.538       .  S
C568        H574   1.111       .  S
C569        H575   1.086       .  S
C569        C570   1.369       .  D
C570       C1051   1.475       .  S
C571        H576   1.085       .  S
C571        C572   1.364       .  D
C572        C779   1.485       .  S
C577        C578   1.539       .  S
C577        C583   1.525       .  S
C577        C581   1.537   1_655  S
C577       C1464   1.500       .  S
C578        H585   1.086       .  S
C578        C579   1.366       .  D
C579        C580   1.540       .  S
C579       C1099   1.478       .  S
C580        C584   1.542       .  S
C580        C582   1.541   1_655  S
C580        H586   1.109       .  S
C581        H587   1.086       .  S
C581        C582   1.367       .  D
C582        C888   1.474       .  S
C583        H588   1.087   1_655  S
C583        C584   1.360       .  D
C584        C760   1.475   1_655  S
C589        C590   1.533       .  S
C589        C595   1.524       .  S
C589        C593   1.530       .  S
C589       C2168   1.500       .  S
C590        H597   1.085       .  S
C590        C591   1.366       .  D
C591        C592   1.553       .  S
C591       C1035   1.484       .  S
C592        C596   1.554       .  S
C592        C594   1.546       .  S
C592        H598   1.110       .  S
C593        H599   1.086       .  S
C593        C594   1.365       .  D
C594        C923   1.476       .  S
C595        H600   1.087       .  S
C595        C596   1.361       .  D
C596        C744   1.487       .  S
C601        C602   1.537       .  S
C601        C607   1.521       .  S
C601        C605   1.538       .  S
C601       C1928   1.503       .  S
C602        H609   1.086       .  S
C602        C603   1.365       .  D
C603        C604   1.540       .  S
C603        C971   1.473       .  S
C604        C608   1.537       .  S
C604        C606   1.540       .  S
C604        H610   1.109       .  S
C605        H611   1.086       .  S
C605        C606   1.366       .  D
C606        C984   1.476       .  S
C607        H612   1.087       .  S
C607        C608   1.363       .  D
C608        C728   1.468       .  S
O613       Zr649   2.472       .  S
O613        C624   1.297       .  A
O614       Zr648   2.449       .  S
O614        C625   1.293       .  A
O615       Zr621   2.455       .  S
O615        C626   1.293       .  A
O616       Zr621   2.482       .  S
O616        C627   1.299       .  A
O617       Zr651   2.403       .  S
O617        C627   1.285       .  A
O618       Zr650   2.409       .  S
O618        C626   1.288       .  A
O619       Zr621   2.400       .  S
O619        C625   1.285       .  A
O620       Zr621   2.389       .  S
O620        C624   1.283       .  A
Zr621       O622   2.330       .  S
Zr621       O623   2.343       .  S
Zr621       O631   2.327       .  S
Zr621       O629   2.348       .  S
O622       Zr648   2.340       .  S
O622       Zr651   2.333       .  S
O623       Zr649   2.339       .  S
O623       Zr650   2.329       .  S
C624       C2056   1.458       .  S
C625        C731   1.456       .  S
C626       C1672   1.465       .  S
C627       C1192   1.465       .  S
H628        O629   0.963       .  S
O629       Zr648   2.346       .  S
O629       Zr650   2.353       .  S
H630        O631   0.964       .  S
O631       Zr649   2.331       .  S
O631       Zr651   2.345       .  S
O632       Zr648   2.467       .  S
O632        C655   1.296       .  A
O633       Zr649   2.462       .  S
O633        C656   1.295       .  A
O634       Zr650   2.458       .  S
O634        C657   1.294       .  A
O635       Zr651   2.498       .  S
O635        C658   1.302       .  A
O636       Zr651   2.462       .  S
O636        C659   1.295       .  A
O637       Zr650   2.499       .  S
O637        C660   1.303       .  A
O638       Zr652   2.501       .  S
O638        C661   1.303       .  A
O639       Zr652   2.463       .  S
O639        C662   1.295       .  A
O640       Zr650   2.387       .  S
O640        C661   1.282       .  A
O641       Zr651   2.419       .  S
O641        C662   1.290       .  A
O642       Zr648   2.440       .  S
O642        C657   1.293       .  A
O643       Zr649   2.401       .  S
O643        C660   1.284       .  A
O644       Zr649   2.428       .  S
O644        C659   1.291       .  A
O645       Zr648   2.412       .  S
O645        C658   1.287       .  A
O646       Zr652   2.424       .  S
O646        C655   1.289       .  A
O647       Zr652   2.427       .  S
O647        C656   1.291       .  A
Zr648       O654   2.336       .  S
Zr648       O666   2.343       .  S
Zr649       O653   2.349       .  S
Zr649       O664   2.339       .  S
Zr650       O654   2.347       .  S
Zr650       O664   2.335       .  S
Zr651       O653   2.355       .  S
Zr651       O666   2.341       .  S
Zr652       O653   2.354       .  S
Zr652       O654   2.342       .  S
Zr652       O666   2.353       .  S
Zr652       O664   2.331       .  S
C655       C1643   1.469       .  S
C656        C811   1.478       .  S
C657       C1160   1.476       .  S
C658        C795   1.483       .  S
C659       C1288   1.471       .  S
C660        C747   1.475       .  S
C661       C1259   1.473       .  S
C662       C1768   1.472       .  S
H663        O664   0.967       .  S
H665        O666   0.967       .  S
O667       Zr703   2.494       .  S
O667        C678   1.301       .  A
O668       Zr702   2.473   1_455  S
O668        C679   1.297       .  A
O669       Zr675   2.461       .  S
O669        C680   1.295       .  A
O670       Zr675   2.455   1_545  S
O670        C681   1.293       .  A
O671       Zr705   2.420   1_556  S
O671        C681   1.290       .  A
O672       Zr704   2.388       .  S
O672        C680   1.283   1_655  A
O673       Zr675   2.416   1_545  S
O673        C679   1.288       .  A
O674       Zr675   2.399       .  S
O674        C678   1.285   1_556  A
Zr675       O676   2.342   1_565  S
Zr675       O677   2.335   1_556  S
Zr675       O685   2.346   1_566  S
Zr675       O683   2.326   1_455  S
O676       Zr702   2.349   1_455  S
O676       Zr705   2.353   1_556  S
O677       Zr703   2.325       .  S
O677       Zr704   2.337   1_454  S
C678       C1832   1.475       .  S
C679       C1115   1.471       .  S
C680        C840   1.454       .  S
C681       C1736   1.470       .  S
H682        O683   0.964       .  S
O683       Zr702   2.339   1_565  S
O683       Zr704   2.335       .  S
H684        O685   0.966       .  S
O685       Zr703   2.339   1_545  S
O685       Zr705   2.333       .  S
O686       Zr702   2.485       .  S
O686        C709   1.299       .  A
O687       Zr703   2.458   1_655  S
O687        C710   1.294   1_565  A
O688       Zr704   2.483       .  S
O688        C711   1.300       .  A
O689       Zr705   2.448   1_556  S
O689        C712   1.293   1_455  A
O690       Zr705   2.498       .  S
O690        C713   1.302       .  A
O691       Zr704   2.464   1_554  S
O691        C714   1.296       .  A
O692       Zr706   2.446   1_565  S
O692        C715   1.292       .  A
O693       Zr706   2.475       .  S
O693        C716   1.298       .  A
O694       Zr704   2.418       .  S
O694        C715   1.289   1_556  A
O695       Zr705   2.411   1_655  S
O695        C716   1.287       .  A
O696       Zr702   2.401       .  S
O696        C711   1.285   1_545  A
O697       Zr703   2.399   1_655  S
O697        C714   1.285       .  A
O698       Zr703   2.385   1_545  S
O698        C713   1.281       .  A
O699       Zr702   2.419       .  S
O699        C712   1.290       .  A
O700       Zr706   2.425   1_556  S
O700        C709   1.289       .  A
O701       Zr706   2.417       .  S
O701        C710   1.289       .  A
Zr702       O708   2.342       .  S
Zr702       O720   2.332       .  S
Zr703       O707   2.344   1_465  S
Zr703       O718   2.348   1_455  S
Zr704       O708   2.334   1_565  S
Zr704       O718   2.339   1_556  S
Zr705       O707   2.336   1_455  S
Zr705       O720   2.353   1_454  S
Zr706       O707   2.341       .  S
Zr706       O708   2.340   1_554  S
Zr706       O720   2.332   1_554  S
Zr706       O718   2.353   1_545  S
C709       C1704   1.479       .  S
C710       C1227   1.466       .  S
C711       C1211   1.465       .  S
C712        C824   1.463       .  S
C713       C1131   1.470       .  S
C714        C763   1.464       .  S
C715       C1803   1.461       .  S
C716        C776   1.466       .  S
H717        O718   0.967       .  S
H719        O720   0.965       .  S
C721        C726   1.382       .  A
C721        C722   1.405       .  A
C721        O727   1.321       .  A
C722        C723   1.404       .  A
C722        H733   1.082       .  S
C723        C732   1.364       .  A
C723        C724   1.381       .  A
C724        C725   1.392       .  A
C724        O730   1.308       .  A
C725        C726   1.392       .  A
C725        H734   1.083       .  S
C726        C729   1.347       .  A
O727        C728   1.331       .  A
C728        C729   1.386       .  A
C729        H735   1.083       .  S
O730        C731   1.326       .  A
C731        C732   1.390       .  A
C732        H736   1.082       .  S
C737        C742   1.378       .  A
C737        C738   1.409       .  A
C737        O743   1.317       .  A
C738        C739   1.405       .  A
C738        H749   1.082       .  S
C739        C748   1.373       .  A
C739        C740   1.378       .  A
C740        C741   1.409       .  A
C740        O746   1.317       .  A
C741        C742   1.405       .  A
C741        H750   1.082       .  S
C742        C745   1.373       .  A
O743        C744   1.335       .  A
C744        C745   1.392       .  A
C745        H751   1.082       .  S
O746        C747   1.335       .  A
C747        C748   1.392       .  A
C748        H752   1.082       .  S
C753        C758   1.381   1_655  A
C753        C754   1.408       .  A
C753        O759   1.323       .  A
C754        C755   1.406       .  A
C754        H765   1.082       .  S
C755        C764   1.368       .  A
C755        C756   1.380   1_655  A
C756        C757   1.398       .  A
C756        O762   1.311       .  A
C757        C758   1.397       .  A
C757        H766   1.083       .  S
C758        C761   1.355       .  A
O759        C760   1.332   1_655  A
C760        C761   1.390       .  A
C761        H767   1.083       .  S
O762        C763   1.329   1_455  A
C763        C764   1.391       .  A
C764        H768   1.082       .  S
C769        C774   1.382       .  A
C769        C770   1.398       .  A
C769        O775   1.321       .  A
C770        C771   1.401       .  A
C770        H781   1.083       .  S
C771        C780   1.349       .  A
C771        C772   1.379       .  A
C772        C773   1.404       .  A
C772        O778   1.326       .  A
C773        C774   1.407       .  A
C773        H782   1.082       .  S
C774        C777   1.358       .  A
O775        C776   1.328       .  A
C776        C777   1.393       .  A
C777        H783   1.083       .  S
O778        C779   1.332       .  A
C779        C780   1.394       .  A
C780        H784   1.081       .  S
C785        C790   1.379       .  A
C785        C786   1.407       .  A
C785        O791   1.329       .  A
C786        C787   1.411       .  A
C786        H797   1.083       .  S
C787        C796   1.360       .  A
C787        C788   1.381       .  A
C788        C789   1.404       .  A
C788        O794   1.328       .  A
C789        C790   1.406       .  A
C789        H798   1.082       .  S
C790        C793   1.356       .  A
O791        C792   1.334       .  A
C792        C793   1.395       .  A
C793        H799   1.082       .  S
O794        C795   1.333       .  A
C795        C796   1.397       .  A
C796        H800   1.083       .  S
C801        C806   1.380       .  A
C801        C802   1.395       .  A
C801        O807   1.312       .  A
C802        C803   1.395       .  A
C802        H813   1.083       .  S
C803        C812   1.349       .  A
C803        C804   1.380       .  A
C804        C805   1.412       .  A
C804        O810   1.329       .  A
C805        C806   1.412       .  A
C805        H814   1.082       .  S
C806        C809   1.371       .  A
O807        C808   1.328       .  A
C808        C809   1.396       .  A
C809        H815   1.082       .  S
O810        C811   1.337       .  A
C811        C812   1.388       .  A
C812        H816   1.083       .  S
C817        C822   1.381   1_655  A
C817        C818   1.389       .  A
C817        O823   1.307       .  A
C818        C819   1.389       .  A
C818        H829   1.083       .  S
C819        C828   1.345       .  A
C819        C820   1.380       .  A
C820        C821   1.411   1_655  A
C820        O826   1.325   1_655  A
C821        C822   1.411       .  A
C821        H830   1.082       .  S
C822        C825   1.371       .  A
O823        C824   1.324       .  A
C824        C825   1.396   1_655  A
C825        H831   1.082       .  S
O826        C827   1.335   1_455  A
C827        C828   1.384       .  A
C828        H832   1.083       .  S
C833        C838   1.381       .  A
C833        C834   1.399       .  A
C833        O839   1.308       .  A
C834        C835   1.395       .  A
C834        H845   1.083   1_455  S
C835        C844   1.363       .  A
C835        C836   1.380       .  A
C836        C837   1.404       .  A
C836        O842   1.312       .  A
C837        C838   1.399       .  A
C837        H846   1.082       .  S
C838        C841   1.367       .  A
O839        C840   1.328       .  A
C840        C841   1.389       .  A
C841        H847   1.083       .  S
O842        C843   1.332       .  A
C843        C844   1.386       .  A
C844        H848   1.082   1_455  S
C849        C854   1.381       .  A
C849        C850   1.402       .  A
C849        O855   1.319       .  A
C850        C851   1.402       .  A
C850        H861   1.082       .  S
C851        C860   1.360       .  A
C851        C852   1.381       .  A
C852        C853   1.401       .  A
C852        O858   1.318       .  A
C853        C854   1.400       .  A
C853        H862   1.082       .  S
C854        C857   1.356       .  A
O855        C856   1.331       .  A
C856        C857   1.390       .  A
C857        H863   1.083       .  S
O858        C859   1.329       .  A
C859        C860   1.390       .  A
C860        H864   1.082       .  S
C865        C870   1.380       .  A
C865        C866   1.402       .  A
C865        O871   1.318       .  A
C866        C867   1.401       .  A
C866        H877   1.082       .  S
C867        C876   1.359       .  A
C867        C868   1.380       .  A
C868        C869   1.410       .  A
C868        O874   1.325       .  A
C869        C870   1.410       .  A
C869        H878   1.082       .  S
C870        C873   1.370       .  A
O871        C872   1.331       .  A
C872        C873   1.396       .  A
C873        H879   1.082       .  S
O874        C875   1.334       .  A
C875        C876   1.391       .  A
C876        H880   1.083       .  S
C881        C886   1.380       .  A
C881        C882   1.402       .  A
C881        O887   1.320       .  A
C882        C883   1.403       .  A
C882        H893   1.082       .  S
C883        C892   1.359       .  A
C883        C884   1.380       .  A
C884        C885   1.405       .  A
C884        O890   1.322       .  A
C885        C886   1.404       .  A
C885        H894   1.082       .  S
C886        C889   1.360       .  A
O887        C888   1.331       .  A
C888        C889   1.390       .  A
C889        H895   1.080       .  S
O890        C891   1.333       .  A
C891        C892   1.392       .  A
C892        H896   1.082       .  S
C897        C902   1.379       .  A
C897        C898   1.405       .  A
C897        O903   1.319       .  A
C898        C899   1.405       .  A
C898        H909   1.082       .  S
C899        C908   1.367       .  A
C899        C900   1.380       .  A
C900        C901   1.407       .  A
C900        O906   1.320       .  A
C901        C902   1.405       .  A
C901        H910   1.082       .  S
C902        C905   1.365       .  A
O903        C904   1.331       .  A
C904        C905   1.395       .  A
C905        H911   1.082       .  S
O906        C907   1.332       .  A
C907        C908   1.393       .  A
C908        H912   1.083       .  S
C913        C918   1.381       .  A
C913        C914   1.403       .  A
C913        O919   1.318       .  A
C914        C915   1.403       .  A
C914        H925   1.083       .  S
C915        C924   1.360       .  A
C915        C916   1.381       .  A
C916        C917   1.401       .  A
C916        O922   1.319       .  A
C917        C918   1.401       .  A
C917        H926   1.082       .  S
C918        C921   1.359       .  A
O919        C920   1.330       .  A
C920        C921   1.390       .  A
C921        H927   1.083       .  S
O922        C923   1.329       .  A
C923        C924   1.394       .  A
C924        H928   1.083       .  S
C929        C934   1.380       .  A
C929        C930   1.406       .  A
C929        O935   1.321       .  A
C930        C931   1.405       .  A
C930        H941   1.082       .  S
C931        C940   1.362       .  A
C931        C932   1.381       .  A
C932        C933   1.396       .  A
C932        O938   1.314       .  A
C933        C934   1.396       .  A
C933        H942   1.082       .  S
C934        C937   1.355       .  A
O935        C936   1.333       .  A
C936        C937   1.387       .  A
C937        H943   1.082       .  S
O938        C939   1.326       .  A
C939        C940   1.392       .  A
C940        H944   1.083       .  S
C945        C950   1.380       .  A
C945        C946   1.404       .  A
C945        O951   1.323       .  A
C946        C947   1.404       .  A
C946        H957   1.082       .  S
C947        C956   1.361       .  A
C947        C948   1.379       .  A
C948        C949   1.410       .  A
C948        O954   1.326       .  A
C949        C950   1.411       .  A
C949        H958   1.082       .  S
C950        C953   1.367       .  A
O951        C952   1.332       .  A
C952        C953   1.398       .  A
C953        H959   1.083       .  S
O954        C955   1.334       .  A
C955        C956   1.393       .  A
C956        H960   1.082       .  S
C961        C966   1.381       .  A
C961        C962   1.400       .  A
C961        O967   1.316       .  A
C962        C963   1.399       .  A
C962        H973   1.082       .  S
C963        C972   1.358       .  A
C963        C964   1.380       .  A
C964        C965   1.405       .  A
C964        O970   1.319       .  A
C965        C966   1.404       .  A
C965        H974   1.082       .  S
C966        C969   1.364       .  A
O967        C968   1.329       .  A
C968        C969   1.395       .  A
C969        H975   1.083       .  S
O970        C971   1.331       .  A
C971        C972   1.389       .  A
C972        H976   1.081       .  S
C977        C982   1.380       .  A
C977        C978   1.404       .  A
C977        O983   1.319       .  A
C978        C979   1.403       .  A
C978        H989   1.082       .  S
C979        C988   1.359       .  A
C979        C980   1.381       .  A
C980        C981   1.399       .  A
C980        O986   1.316       .  A
C981        C982   1.399       .  A
C981        H990   1.082       .  S
C982        C985   1.356       .  A
O983        C984   1.333       .  A
C984        C985   1.389       .  A
C985        H991   1.080       .  S
O986        C987   1.328       .  A
C987        C988   1.390       .  A
C988        H992   1.083       .  S
C993        C998   1.381       .  A
C993        C994   1.402       .  A
C993        O999   1.318       .  A
C994        C995   1.401       .  A
C994       H1005   1.083       .  S
C995       C1004   1.357       .  A
C995        C996   1.381       .  A
C996        C997   1.402       .  A
C996       O1002   1.319       .  A
C997        C998   1.402       .  A
C997       H1006   1.082       .  S
C998       C1001   1.360       .  A
O999       C1000   1.331       .  A
C1000      C1001   1.391       .  A
C1001      H1007   1.082       .  S
O1002      C1003   1.328       .  A
C1003      C1004   1.391       .  A
C1004      H1008   1.083       .  S
C1009      C1014   1.382       .  A
C1009      C1010   1.397       .  A
C1009      O1015   1.313       .  A
C1010      C1011   1.395       .  A
C1010      H1021   1.082       .  S
C1011      C1020   1.354       .  A
C1011      C1012   1.382       .  A
C1012      C1013   1.398       .  A
C1012      O1018   1.313       .  A
C1013      C1014   1.398       .  A
C1013      H1022   1.082       .  S
C1014      C1017   1.357       .  A
O1015      C1016   1.327       .  A
C1016      C1017   1.388       .  A
C1017      H1023   1.082       .  S
O1018      C1019   1.327       .  A
C1019      C1020   1.387       .  A
C1020      H1024   1.083       .  S
C1025      C1030   1.380       .  A
C1025      C1026   1.405       .  A
C1025      O1031   1.320       .  A
C1026      C1027   1.404       .  A
C1026      H1037   1.082       .  S
C1027      C1036   1.366       .  A
C1027      C1028   1.379       .  A
C1028      C1029   1.406       .  A
C1028      O1034   1.318       .  A
C1029      C1030   1.404       .  A
C1029      H1038   1.083       .  S
C1030      C1033   1.364       .  A
O1031      C1032   1.331       .  A
C1032      C1033   1.394       .  A
C1033      H1039   1.083       .  S
O1034      C1035   1.334       .  A
C1035      C1036   1.392       .  A
C1036      H1040   1.082       .  S
C1041      C1046   1.381       .  A
C1041      C1042   1.402       .  A
C1041      O1047   1.320       .  A
C1042      C1043   1.402       .  A
C1042      H1053   1.082       .  S
C1043      C1052   1.359       .  A
C1043      C1044   1.381       .  A
C1044      C1045   1.404       .  A
C1044      O1050   1.321       .  A
C1045      C1046   1.404       .  A
C1045      H1054   1.082       .  S
C1046      C1049   1.360       .  A
O1047      C1048   1.331       .  A
C1048      C1049   1.391       .  A
C1049      H1055   1.083       .  S
O1050      C1051   1.332       .  A
C1051      C1052   1.390       .  A
C1052      H1056   1.082       .  S
C1057      C1062   1.381       .  A
C1057      C1058   1.400       .  A
C1057      O1063   1.318       .  A
C1058      C1059   1.400       .  A
C1058      H1069   1.082       .  S
C1059      C1068   1.357       .  A
C1059      C1060   1.381       .  A
C1060      C1061   1.401       .  A
C1060      O1066   1.318       .  A
C1061      C1062   1.402       .  A
C1061      H1070   1.083       .  S
C1062      C1065   1.357       .  A
O1063      C1064   1.329       .  A
C1064      C1065   1.394       .  A
C1065      H1071   1.082       .  S
O1066      C1067   1.330       .  A
C1067      C1068   1.388       .  A
C1068      H1072   1.083       .  S
C1073      C1078   1.380       .  A
C1073      C1074   1.408       .  A
C1073      O1079   1.323       .  A
C1074      C1075   1.407       .  A
C1074      H1085   1.082       .  S
C1075      C1084   1.367       .  A
C1075      C1076   1.379       .  A
C1076      C1077   1.404       .  A
C1076      O1082   1.318       .  A
C1077      C1078   1.403       .  A
C1077      H1086   1.082       .  S
C1078      C1081   1.362       .  A
O1079      C1080   1.334       .  A
C1080      C1081   1.392       .  A
C1081      H1087   1.083       .  S
O1082      C1083   1.332       .  A
C1083      C1084   1.394       .  A
C1084      H1088   1.082       .  S
C1089      C1094   1.381       .  A
C1089      C1090   1.402       .  A
C1089      O1095   1.318       .  A
C1090      C1091   1.402       .  A
C1090      H1101   1.082       .  S
C1091      C1100   1.359       .  A
C1091      C1092   1.380       .  A
C1092      C1093   1.403       .  A
C1092      O1098   1.319       .  A
C1093      C1094   1.402       .  A
C1093      H1102   1.082       .  S
C1094      C1097   1.360       .  A
O1095      C1096   1.330       .  A
C1096      C1097   1.390       .  A
C1097      H1103   1.083       .  S
O1098      C1099   1.332       .  A
C1099      C1100   1.392       .  A
C1100      H1104   1.080       .  S
C1105      C1110   1.381   1_545  A
C1105      C1106   1.409       .  A
C1105      O1111   1.323       .  A
C1106      C1107   1.408       .  A
C1106      H1117   1.082       .  S
C1107      C1116   1.371       .  A
C1107      C1108   1.380   1_545  A
C1108      C1109   1.399       .  A
C1108      O1114   1.313       .  A
C1109      C1110   1.397       .  A
C1109      H1118   1.083       .  S
C1110      C1113   1.356       .  A
O1111      C1112   1.332       .  A
C1112      C1113   1.387   1_545  A
C1113      H1119   1.083       .  S
O1114      C1115   1.329   1_565  A
C1115      C1116   1.394       .  A
C1116      H1120   1.082       .  S
C1121      C1126   1.378       .  A
C1121      C1122   1.409       .  A
C1121      O1127   1.317       .  A
C1122      C1123   1.405       .  A
C1122      H1133   1.082       .  S
C1123      C1132   1.373       .  A
C1123      C1124   1.379       .  A
C1124      C1125   1.407       .  A
C1124      O1130   1.314       .  A
C1125      C1126   1.402       .  A
C1125      H1134   1.082       .  S
C1126      C1129   1.371       .  A
O1127      C1128   1.335       .  A
C1128      C1129   1.392       .  A
C1129      H1135   1.082       .  S
O1130      C1131   1.333       .  A
C1131      C1132   1.394       .  A
C1132      H1136   1.083       .  S
C1137      C1142   1.380       .  A
C1137      C1138   1.404       .  A
C1137      O1143   1.320       .  A
C1138      C1139   1.404       .  A
C1138      H1149   1.082       .  S
C1139      C1148   1.360       .  A
C1139      C1140   1.381       .  A
C1140      C1141   1.401       .  A
C1140      O1146   1.319       .  A
C1141      C1142   1.402       .  A
C1141      H1150   1.082       .  S
C1142      C1145   1.358       .  A
O1143      C1144   1.332       .  A
C1144      C1145   1.392       .  A
C1145      H1151   1.082       .  S
O1146      C1147   1.329       .  A
C1147      C1148   1.393       .  A
C1148      H1152   1.083       .  S
C1153      C1158   1.381       .  A
C1153      C1154   1.391       .  A
C1153      O1159   1.311       .  A
C1154      C1155   1.390       .  A
C1154      H1165   1.082       .  S
C1155      C1164   1.346       .  A
C1155      C1156   1.379       .  A
C1156      C1157   1.415       .  A
C1156      O1162   1.328       .  A
C1157      C1158   1.416       .  A
C1157      H1166   1.082       .  S
C1158      C1161   1.375       .  A
O1159      C1160   1.326       .  A
C1160      C1161   1.400       .  A
C1161      H1167   1.082       .  S
O1162      C1163   1.338       .  A
C1163      C1164   1.383       .  A
C1164      H1168   1.082       .  S
C1169      C1174   1.380       .  A
C1169      C1170   1.404       .  A
C1169      O1175   1.320       .  A
C1170      C1171   1.404       .  A
C1170      H1181   1.082       .  S
C1171      C1180   1.361       .  A
C1171      C1172   1.381       .  A
C1172      C1173   1.401       .  A
C1172      O1178   1.318       .  A
C1173      C1174   1.402       .  A
C1173      H1182   1.082       .  S
C1174      C1177   1.359       .  A
O1175      C1176   1.332       .  A
C1176      C1177   1.392       .  A
C1177      H1183   1.082       .  S
O1178      C1179   1.330       .  A
C1179      C1180   1.393       .  A
C1180      H1184   1.083       .  S
C1185      C1190   1.380       .  A
C1185      C1186   1.407       .  A
C1185      O1191   1.315       .  A
C1186      C1187   1.403       .  A
C1186      H1197   1.083       .  S
C1187      C1196   1.369       .  A
C1187      C1188   1.379       .  A
C1188      C1189   1.403       .  A
C1188      O1194   1.314       .  A
C1189      C1190   1.400       .  A
C1189      H1198   1.082       .  S
C1190      C1193   1.366       .  A
O1191      C1192   1.333       .  A
C1192      C1193   1.388       .  A
C1193      H1199   1.082       .  S
O1194      C1195   1.332       .  A
C1195      C1196   1.392       .  A
C1196      H1200   1.082       .  S
C1201      C1206   1.378       .  A
C1201      C1202   1.409       .  A
C1201      O1207   1.331       .  A
C1202      C1203   1.412       .  A
C1202      H1213   1.082       .  S
C1203      C1212   1.361       .  A
C1203      C1204   1.381       .  A
C1204      C1205   1.398       .  A
C1204      O1210   1.322       .  A
C1205      C1206   1.402       .  A
C1205      H1214   1.082       .  S
C1206      C1209   1.351       .  A
O1207      C1208   1.337       .  A
C1208      C1209   1.397       .  A
C1209      H1215   1.080       .  S
O1210      C1211   1.328       .  A
C1211      C1212   1.396       .  A
C1212      H1216   1.083       .  S
C1217      C1222   1.380   1_565  A
C1217      C1218   1.412       .  A
C1217      O1223   1.324       .  A
C1218      C1219   1.411       .  A
C1218      H1229   1.082       .  S
C1219      C1228   1.373       .  A
C1219      C1220   1.381   1_565  A
C1220      C1221   1.389       .  A
C1220      O1226   1.306       .  A
C1221      C1222   1.387       .  A
C1221      H1230   1.083       .  S
C1222      C1225   1.345       .  A
O1223      C1224   1.335   1_565  A
C1224      C1225   1.382       .  A
C1225      H1231   1.083       .  S
O1226      C1227   1.324       .  A
C1227      C1228   1.397   1_545  A
C1228      H1232   1.082       .  S
C1233      C1238   1.380       .  A
C1233      C1234   1.404       .  A
C1233      O1239   1.321       .  A
C1234      C1235   1.405       .  A
C1234      H1245   1.082       .  S
C1235      C1244   1.359       .  A
C1235      C1236   1.380       .  A
C1236      C1237   1.403       .  A
C1236      O1242   1.321       .  A
C1237      C1238   1.403       .  A
C1237      H1246   1.082       .  S
C1238      C1241   1.360       .  A
O1239      C1240   1.332       .  A
C1240      C1241   1.392       .  A
C1241      H1247   1.083       .  S
O1242      C1243   1.331       .  A
C1243      C1244   1.395       .  A
C1244      H1248   1.083       .  S
C1249      C1254   1.379       .  A
C1249      C1250   1.410       .  A
C1249      O1255   1.315       .  A
C1250      C1251   1.405       .  A
C1250      H1261   1.082       .  S
C1251      C1260   1.377       .  A
C1251      C1252   1.379       .  A
C1252      C1253   1.405       .  A
C1252      O1258   1.311       .  A
C1253      C1254   1.400       .  A
C1253      H1262   1.082       .  S
C1254      C1257   1.370       .  A
O1255      C1256   1.335       .  A
C1256      C1257   1.389       .  A
C1257      H1263   1.082       .  S
O1258      C1259   1.331       .  A
C1259      C1260   1.394       .  A
C1260      H1264   1.082       .  S
C1265      C1270   1.381       .  A
C1265      C1266   1.397       .  A
C1265      O1271   1.315       .  A
C1266      C1267   1.397       .  A
C1266      H1277   1.082       .  S
C1267      C1276   1.355       .  A
C1267      C1268   1.381       .  A
C1268      C1269   1.403       .  A
C1268      O1274   1.318       .  A
C1269      C1270   1.402       .  A
C1269      H1278   1.083       .  S
C1270      C1273   1.358       .  A
O1271      C1272   1.328       .  A
C1272      C1273   1.392       .  A
C1273      H1279   1.082       .  S
O1274      C1275   1.331       .  A
C1275      C1276   1.387       .  A
C1276      H1280   1.083       .  S
C1281      C1286   1.380       .  A
C1281      C1282   1.396       .  A
C1281      O1287   1.311       .  A
C1282      C1283   1.395       .  A
C1282      H1293   1.083       .  S
C1283      C1292   1.353       .  A
C1283      C1284   1.381       .  A
C1284      C1285   1.410       .  A
C1284      O1290   1.323       .  A
C1285      C1286   1.409       .  A
C1285      H1294   1.082       .  S
C1286      C1289   1.372       .  A
O1287      C1288   1.327       .  A
C1288      C1289   1.396       .  A
C1289      H1295   1.082       .  S
O1290      C1291   1.332       .  A
C1291      C1292   1.388       .  A
C1292      H1296   1.083       .  S
C1297      C1302   1.379   1_455  A
C1297      C1298   1.407       .  A
C1297      O1303   1.324       .  A
C1298      C1299   1.407       .  A
C1298      H1309   1.082       .  S
C1299      C1308   1.364       .  A
C1299      C1300   1.379   1_455  A
C1300      C1301   1.405       .  A
C1300      O1306   1.320       .  A
C1301      C1302   1.404       .  A
C1301      H1310   1.082       .  S
C1302      C1305   1.362       .  A
O1303      C1304   1.335   1_455  A
C1304      C1305   1.392       .  A
C1305      H1311   1.082       .  S
O1306      C1307   1.334       .  A
C1307      C1308   1.395   1_655  A
C1308      H1312   1.082       .  S
C1313      C1318   1.381   1_455  A
C1313      C1314   1.399       .  A
C1313      O1319   1.316       .  A
C1314      C1315   1.399       .  A
C1314      H1325   1.082       .  S
C1315      C1324   1.356       .  A
C1315      C1316   1.381   1_455  A
C1316      C1317   1.401       .  A
C1316      O1322   1.317       .  A
C1317      C1318   1.401       .  A
C1317      H1326   1.082       .  S
C1318      C1321   1.357       .  A
O1319      C1320   1.328   1_455  A
C1320      C1321   1.393       .  A
C1321      H1327   1.083       .  S
O1322      C1323   1.330       .  A
C1323      C1324   1.389   1_655  A
C1324      H1328   1.083       .  S
C1329      C1334   1.380       .  A
C1329      C1330   1.406       .  A
C1329      O1335   1.322       .  A
C1330      C1331   1.406       .  A
C1330      H1341   1.082       .  S
C1331      C1340   1.364       .  A
C1331      C1332   1.381       .  A
C1332      C1333   1.402       .  A
C1332      O1338   1.318       .  A
C1333      C1334   1.402       .  A
C1333      H1342   1.082       .  S
C1334      C1337   1.358       .  A
O1335      C1336   1.332       .  A
C1336      C1337   1.393       .  A
C1337      H1343   1.082       .  S
O1338      C1339   1.330       .  A
C1339      C1340   1.392       .  A
C1340      H1344   1.082       .  S
C1345      C1350   1.380       .  A
C1345      C1346   1.399       .  A
C1345      O1351   1.315       .  A
C1346      C1347   1.398       .  A
C1346      H1357   1.082       .  S
C1347      C1356   1.358       .  A
C1347      C1348   1.381       .  A
C1348      C1349   1.401       .  A
C1348      O1354   1.314       .  A
C1349      C1350   1.401       .  A
C1349      H1358   1.083       .  S
C1350      C1353   1.358       .  A
O1351      C1352   1.328       .  A
C1352      C1353   1.391       .  A
C1353      H1359   1.079       .  S
O1354      C1355   1.330       .  A
C1355      C1356   1.388       .  A
C1356      H1360   1.082       .  S
C1361      C1366   1.379       .  A
C1361      C1362   1.411       .  A
C1361      O1367   1.325       .  A
C1362      C1363   1.411       .  A
C1362      H1373   1.082       .  S
C1363      C1372   1.371       .  A
C1363      C1364   1.379       .  A
C1364      C1365   1.408       .  A
C1364      O1370   1.324       .  A
C1365      C1366   1.408       .  A
C1365      H1374   1.082       .  S
C1366      C1369   1.368       .  A
O1367      C1368   1.335       .  A
C1368      C1369   1.396       .  A
C1369      H1375   1.083       .  S
O1370      C1371   1.334       .  A
C1371      C1372   1.397       .  A
C1372      H1376   1.081       .  S
C1377      C1382   1.381       .  A
C1377      C1378   1.397       .  A
C1377      O1383   1.315       .  A
C1378      C1379   1.398       .  A
C1378      H1389   1.082       .  S
C1379      C1388   1.354       .  A
C1379      C1380   1.381       .  A
C1380      C1381   1.399       .  A
C1380      O1386   1.316       .  A
C1381      C1382   1.398       .  A
C1381      H1390   1.083       .  S
C1382      C1385   1.353       .  A
O1383      C1384   1.328       .  A
C1384      C1385   1.388       .  A
C1385      H1391   1.078       .  S
O1386      C1387   1.329       .  A
C1387      C1388   1.389       .  A
C1388      H1392   1.082       .  S
C1393      C1398   1.380       .  A
C1393      C1394   1.405       .  A
C1393      O1399   1.320       .  A
C1394      C1395   1.405       .  A
C1394      H1405   1.082       .  S
C1395      C1404   1.364       .  A
C1395      C1396   1.380       .  A
C1396      C1397   1.402       .  A
C1396      O1402   1.318       .  A
C1397      C1398   1.401       .  A
C1397      H1406   1.082       .  S
C1398      C1401   1.361       .  A
O1399      C1400   1.332       .  A
C1400      C1401   1.391       .  A
C1401      H1407   1.083       .  S
O1402      C1403   1.330       .  A
C1403      C1404   1.394       .  A
C1404      H1408   1.082       .  S
C1409      C1414   1.380       .  A
C1409      C1410   1.406       .  A
C1409      O1415   1.325       .  A
C1410      C1411   1.406       .  A
C1410      H1421   1.082       .  S
C1411      C1420   1.365       .  A
C1411      C1412   1.379       .  A
C1412      C1413   1.406       .  A
C1412      O1418   1.320       .  A
C1413      C1414   1.406       .  A
C1413      H1422   1.083       .  S
C1414      C1417   1.363       .  A
O1415      C1416   1.333       .  A
C1416      C1417   1.396       .  A
C1417      H1423   1.083       .  S
O1418      C1419   1.334       .  A
C1419      C1420   1.392       .  A
C1420      H1424   1.078       .  S
C1425      C1430   1.381       .  A
C1425      C1426   1.402       .  A
C1425      O1431   1.321       .  A
C1426      C1427   1.402       .  A
C1426      H1437   1.082       .  S
C1427      C1436   1.356       .  A
C1427      C1428   1.380       .  A
C1428      C1429   1.402       .  A
C1428      O1434   1.320       .  A
C1429      C1430   1.403       .  A
C1429      H1438   1.082       .  S
C1430      C1433   1.358       .  A
O1431      C1432   1.331       .  A
C1432      C1433   1.391       .  A
C1433      H1439   1.082       .  S
O1434      C1435   1.331       .  A
C1435      C1436   1.391       .  A
C1436      H1440   1.082       .  S
C1441      C1446   1.380       .  A
C1441      C1442   1.402       .  A
C1441      O1447   1.318       .  A
C1442      C1443   1.401       .  A
C1442      H1453   1.082       .  S
C1443      C1452   1.359       .  A
C1443      C1444   1.381       .  A
C1444      C1445   1.403       .  A
C1444      O1450   1.319       .  A
C1445      C1446   1.403       .  A
C1445      H1454   1.082       .  S
C1446      C1449   1.362       .  A
O1447      C1448   1.331       .  A
C1448      C1449   1.392       .  A
C1449      H1455   1.078       .  S
O1450      C1451   1.330       .  A
C1451      C1452   1.389       .  A
C1452      H1456   1.083       .  S
C1457      C1462   1.380   1_655  A
C1457      C1458   1.400       .  A
C1457      O1463   1.317       .  A
C1458      C1459   1.401       .  A
C1458      H1469   1.083       .  S
C1459      C1468   1.356       .  A
C1459      C1460   1.382   1_655  A
C1460      C1461   1.400       .  A
C1460      O1466   1.318       .  A
C1461      C1462   1.400       .  A
C1461      H1470   1.082       .  S
C1462      C1465   1.357       .  A
O1463      C1464   1.331       .  A
C1464      C1465   1.390   1_655  A
C1465      H1471   1.082       .  S
O1466      C1467   1.329   1_455  A
C1467      C1468   1.391       .  A
C1468      H1472   1.083       .  S
C1473      C1478   1.381   1_655  A
C1473      C1474   1.401       .  A
C1473      O1479   1.319       .  A
C1474      C1475   1.401       .  A
C1474      H1485   1.082       .  S
C1475      C1484   1.357       .  A
C1475      C1476   1.379   1_655  A
C1476      C1477   1.402       .  A
C1476      O1482   1.318       .  A
C1477      C1478   1.402       .  A
C1477      H1486   1.082       .  S
C1478      C1481   1.358       .  A
O1479      C1480   1.331       .  A
C1480      C1481   1.391   1_655  A
C1481      H1487   1.082       .  S
O1482      C1483   1.332   1_455  A
C1483      C1484   1.394       .  A
C1484      H1488   1.081       .  S
C1489      C1494   1.379       .  A
C1489      C1490   1.403       .  A
C1489      O1495   1.321       .  A
C1490      C1491   1.404       .  A
C1490      H1501   1.082       .  S
C1491      C1500   1.361       .  A
C1491      C1492   1.380       .  A
C1492      C1493   1.406       .  A
C1492      O1498   1.323       .  A
C1493      C1494   1.406       .  A
C1493      H1502   1.082       .  S
C1494      C1497   1.362       .  A
O1495      C1496   1.331       .  A
C1496      C1497   1.393       .  A
C1497      H1503   1.079       .  S
O1498      C1499   1.333       .  A
C1499      C1500   1.392       .  A
C1500      H1504   1.082       .  S
C1505      C1510   1.380       .  A
C1505      C1506   1.404       .  A
C1505      O1511   1.319       .  A
C1506      C1507   1.404       .  A
C1506      H1517   1.082       .  S
C1507      C1516   1.362       .  A
C1507      C1508   1.381       .  A
C1508      C1509   1.404       .  A
C1508      O1514   1.320       .  A
C1509      C1510   1.403       .  A
C1509      H1518   1.082       .  S
C1510      C1513   1.361       .  A
O1511      C1512   1.332       .  A
C1512      C1513   1.391       .  A
C1513      H1519   1.081       .  S
O1514      C1515   1.331       .  A
C1515      C1516   1.391       .  A
C1516      H1520   1.082       .  S
C1521      C1526   1.382       .  A
C1521      C1522   1.397       .  A
C1521      O1527   1.315       .  A
C1522      C1523   1.398       .  A
C1522      H1533   1.082       .  S
C1523      C1532   1.352       .  A
C1523      C1524   1.380       .  A
C1524      C1525   1.401       .  A
C1524      O1530   1.318       .  A
C1525      C1526   1.401       .  A
C1525      H1534   1.082       .  S
C1526      C1529   1.358       .  A
O1527      C1528   1.327       .  A
C1528      C1529   1.391       .  A
C1529      H1535   1.083       .  S
O1530      C1531   1.330       .  A
C1531      C1532   1.388       .  A
C1532      H1536   1.078       .  S
C1537      C1542   1.379       .  A
C1537      C1538   1.408       .  A
C1537      O1543   1.325       .  A
C1538      C1539   1.408       .  A
C1538      H1549   1.082       .  S
C1539      C1548   1.366       .  A
C1539      C1540   1.380       .  A
C1540      C1541   1.405       .  A
C1540      O1546   1.322       .  A
C1541      C1542   1.406       .  A
C1541      H1550   1.082       .  S
C1542      C1545   1.363       .  A
O1543      C1544   1.334       .  A
C1544      C1545   1.396       .  A
C1545      H1551   1.082       .  S
O1546      C1547   1.333       .  A
C1547      C1548   1.394       .  A
C1548      H1552   1.082       .  S
C1553      C1558   1.379       .  A
C1553      C1554   1.408       .  A
C1553      O1559   1.326       .  A
C1554      C1555   1.407       .  A
C1554      H1565   1.082       .  S
C1555      C1564   1.364       .  A
C1555      C1556   1.378       .  A
C1556      C1557   1.408       .  A
C1556      O1562   1.324       .  A
C1557      C1558   1.410       .  A
C1557      H1566   1.082       .  S
C1558      C1561   1.367       .  A
O1559      C1560   1.335       .  A
C1560      C1561   1.397       .  A
C1561      H1567   1.082       .  S
O1562      C1563   1.335       .  A
C1563      C1564   1.392       .  A
C1564      H1568   1.078       .  S
C1569      C1574   1.381       .  A
C1569      C1570   1.401       .  A
C1569      O1575   1.316       .  A
C1570      C1571   1.399       .  A
C1570      H1581   1.082       .  S
C1571      C1580   1.359       .  A
C1571      C1572   1.381       .  A
C1572      C1573   1.400       .  A
C1572      O1578   1.314       .  A
C1573      C1574   1.399       .  A
C1573      H1582   1.082       .  S
C1574      C1577   1.359       .  A
O1575      C1576   1.330       .  A
C1576      C1577   1.390       .  A
C1577      H1583   1.083       .  S
O1578      C1579   1.328       .  A
C1579      C1580   1.388       .  A
C1580      H1584   1.082       .  S
C1585      C1590   1.381       .  A
C1585      C1586   1.404       .  A
C1585      O1591   1.320       .  A
C1586      C1587   1.404       .  A
C1586      H1597   1.082       .  S
C1587      C1596   1.363       .  A
C1587      C1588   1.379       .  A
C1588      C1589   1.405       .  A
C1588      O1594   1.320       .  A
C1589      C1590   1.404       .  A
C1589      H1598   1.082       .  S
C1590      C1593   1.363       .  A
O1591      C1592   1.331       .  A
C1592      C1593   1.393       .  A
C1593      H1599   1.083       .  S
O1594      C1595   1.332       .  A
C1595      C1596   1.392       .  A
C1596      H1600   1.079       .  S
C1601      C1606   1.381       .  A
C1601      C1602   1.402       .  A
C1601      O1607   1.317       .  A
C1602      C1603   1.401       .  A
C1602      H1613   1.082       .  S
C1603      C1612   1.360       .  A
C1603      C1604   1.380       .  A
C1604      C1605   1.400       .  A
C1604      O1610   1.315       .  A
C1605      C1606   1.399       .  A
C1605      H1614   1.082       .  S
C1606      C1609   1.359       .  A
O1607      C1608   1.330       .  A
C1608      C1609   1.390       .  A
C1609      H1615   1.083       .  S
O1610      C1611   1.329       .  A
C1611      C1612   1.393       .  A
C1612      H1616   1.082       .  S
C1617      C1622   1.378       .  A
C1617      C1618   1.406       .  A
C1617      O1623   1.322       .  A
C1618      C1619   1.407       .  A
C1618      H1629   1.082       .  S
C1619      C1628   1.363       .  A
C1619      C1620   1.381       .  A
C1620      C1621   1.397       .  A
C1620      O1626   1.315       .  A
C1621      C1622   1.396       .  A
C1621      H1630   1.082       .  S
C1622      C1625   1.352       .  A
O1623      C1624   1.335       .  A
C1624      C1625   1.391       .  A
C1625      H1631   1.082       .  S
O1626      C1627   1.327       .  A
C1627      C1628   1.394       .  A
C1628      H1632   1.083       .  S
C1633      C1638   1.379       .  A
C1633      C1634   1.404       .  A
C1633      O1639   1.326       .  A
C1634      C1635   1.407       .  A
C1634      H1645   1.082       .  S
C1635      C1644   1.359       .  A
C1635      C1636   1.381       .  A
C1636      C1637   1.402       .  A
C1636      O1642   1.323       .  A
C1637      C1638   1.404       .  A
C1637      H1646   1.083       .  S
C1638      C1641   1.354       .  A
O1639      C1640   1.332       .  A
C1640      C1641   1.397       .  A
C1641      H1647   1.082       .  S
O1642      C1643   1.330       .  A
C1643      C1644   1.392       .  A
C1644      H1648   1.083       .  S
C1649      C1654   1.380       .  A
C1649      C1650   1.405       .  A
C1649      O1655   1.323       .  A
C1650      C1651   1.406       .  A
C1650      H1661   1.082       .  S
C1651      C1660   1.360       .  A
C1651      C1652   1.381       .  A
C1652      C1653   1.402       .  A
C1652      O1658   1.321       .  A
C1653      C1654   1.403       .  A
C1653      H1662   1.082       .  S
C1654      C1657   1.358       .  A
O1655      C1656   1.333       .  A
C1656      C1657   1.391       .  A
C1657      H1663   1.083       .  S
O1658      C1659   1.330       .  A
C1659      C1660   1.394       .  A
C1660      H1664   1.083       .  S
C1665      C1670   1.380       .  A
C1665      C1666   1.411       .  A
C1665      O1671   1.325       .  A
C1666      C1667   1.411       .  A
C1666      H1677   1.082       .  S
C1667      C1676   1.372       .  A
C1667      C1668   1.380       .  A
C1668      C1669   1.392       .  A
C1668      O1674   1.307       .  A
C1669      C1670   1.390       .  A
C1669      H1678   1.083       .  S
C1670      C1673   1.347       .  A
O1671      C1672   1.334       .  A
C1672      C1673   1.386       .  A
C1673      H1679   1.083       .  S
O1674      C1675   1.326       .  A
C1675      C1676   1.397       .  A
C1676      H1680   1.082       .  S
C1681      C1686   1.379   1_556  A
C1681      C1682   1.404       .  A
C1681      O1687   1.317       .  A
C1682      C1683   1.403       .  A
C1682      H1693   1.082       .  S
C1683      C1692   1.362       .  A
C1683      C1684   1.380   1_556  A
C1684      C1685   1.401       .  A
C1684      O1690   1.316       .  A
C1685      C1686   1.401       .  A
C1685      H1694   1.082       .  S
C1686      C1689   1.361       .  A
O1687      C1688   1.333       .  A
C1688      C1689   1.394   1_556  A
C1689      H1695   1.081       .  S
O1690      C1691   1.329   1_554  A
C1691      C1692   1.393       .  A
C1692      H1696   1.083       .  S
C1697      C1702   1.380       .  A
C1697      C1698   1.406       .  A
C1697      O1703   1.318       .  A
C1698      C1699   1.402       .  A
C1698      H1709   1.082       .  S
C1699      C1708   1.366       .  A
C1699      C1700   1.379       .  A
C1700      C1701   1.408       .  A
C1700      O1706   1.319       .  A
C1701      C1702   1.406       .  A
C1701      H1710   1.082       .  S
C1702      C1705   1.372       .  A
O1703      C1704   1.333       .  A
C1704      C1705   1.393       .  A
C1705      H1711   1.082       .  S
O1706      C1707   1.334       .  A
C1707      C1708   1.389       .  A
C1708      H1712   1.082       .  S
C1713      C1718   1.381   1_554  A
C1713      C1714   1.399       .  A
C1713      O1719   1.317       .  A
C1714      C1715   1.399       .  A
C1714      H1725   1.082       .  S
C1715      C1724   1.356       .  A
C1715      C1716   1.380   1_554  A
C1716      C1717   1.406       .  A
C1716      O1722   1.321       .  A
C1717      C1718   1.406       .  A
C1717      H1726   1.083       .  S
C1718      C1721   1.363       .  A
O1719      C1720   1.328   1_554  A
C1720      C1721   1.396       .  A
C1721      H1727   1.083       .  S
O1722      C1723   1.334       .  A
C1723      C1724   1.390   1_556  A
C1724      H1728   1.082       .  S
C1729      C1734   1.380       .  A
C1729      C1730   1.412       .  A
C1729      O1735   1.326       .  A
C1730      C1731   1.412       .  A
C1730      H1741   1.082       .  S
C1731      C1740   1.372       .  A
C1731      C1732   1.380       .  A
C1732      C1733   1.394       .  A
C1732      O1738   1.310       .  A
C1733      C1734   1.393       .  A
C1733      H1742   1.082       .  S
C1734      C1737   1.351       .  A
O1735      C1736   1.335       .  A
C1736      C1737   1.386       .  A
C1737      H1743   1.083       .  S
O1738      C1739   1.326       .  A
C1739      C1740   1.398       .  A
C1740      H1744   1.082       .  S
C1745      C1750   1.380       .  A
C1745      C1746   1.398       .  A
C1745      O1751   1.314       .  A
C1746      C1747   1.397       .  A
C1746      H1757   1.082       .  S
C1747      C1756   1.356       .  A
C1747      C1748   1.380       .  A
C1748      C1749   1.403       .  A
C1748      O1754   1.317       .  A
C1749      C1750   1.402       .  A
C1749      H1758   1.083       .  S
C1750      C1753   1.360       .  A
O1751      C1752   1.328       .  A
C1752      C1753   1.395       .  A
C1753      H1759   1.083       .  S
O1754      C1755   1.331       .  A
C1755      C1756   1.389       .  A
C1756      H1760   1.083       .  S
C1761      C1766   1.379       .  A
C1761      C1762   1.415       .  A
C1761      O1767   1.327       .  A
C1762      C1763   1.414       .  A
C1762      H1773   1.082       .  S
C1763      C1772   1.375       .  A
C1763      C1764   1.380       .  A
C1764      C1765   1.391       .  A
C1764      O1770   1.307       .  A
C1765      C1766   1.390       .  A
C1765      H1774   1.082       .  S
C1766      C1769   1.348       .  A
O1767      C1768   1.337       .  A
C1768      C1769   1.386       .  A
C1769      H1775   1.083       .  S
O1770      C1771   1.325       .  A
C1771      C1772   1.399       .  A
C1772      H1776   1.082       .  S
C1777      C1782   1.380   1_554  A
C1777      C1778   1.404       .  A
C1777      O1783   1.319       .  A
C1778      C1779   1.405       .  A
C1778      H1789   1.083       .  S
C1779      C1788   1.361       .  A
C1779      C1780   1.381   1_554  A
C1780      C1781   1.398       .  A
C1780      O1786   1.317       .  A
C1781      C1782   1.397       .  A
C1781      H1790   1.082       .  S
C1782      C1785   1.354       .  A
O1783      C1784   1.332   1_554  A
C1784      C1785   1.388       .  A
C1785      H1791   1.082       .  S
O1786      C1787   1.328       .  A
C1787      C1788   1.394   1_556  A
C1788      H1792   1.083       .  S
C1793      C1798   1.380       .  A
C1793      C1794   1.393       .  A
C1793      O1799   1.308       .  A
C1794      C1795   1.391       .  A
C1794      H1805   1.082       .  S
C1795      C1804   1.351       .  A
C1795      C1796   1.380       .  A
C1796      C1797   1.411       .  A
C1796      O1802   1.323       .  A
C1797      C1798   1.411       .  A
C1797      H1806   1.082   1_554  S
C1798      C1801   1.373   1_554  A
O1799      C1800   1.325       .  A
C1800      C1801   1.398   1_554  A
C1801      H1807   1.082       .  S
O1802      C1803   1.334       .  A
C1803      C1804   1.385       .  A
C1804      H1808   1.083       .  S
C1809      C1814   1.380   1_556  A
C1809      C1810   1.406       .  A
C1809      O1815   1.320       .  A
C1810      C1811   1.404       .  A
C1810      H1821   1.082       .  S
C1811      C1820   1.366       .  A
C1811      C1812   1.379   1_556  A
C1812      C1813   1.404       .  A
C1812      O1818   1.316       .  A
C1813      C1814   1.402       .  A
C1813      H1822   1.082       .  S
C1814      C1817   1.363       .  A
O1815      C1816   1.332       .  A
C1816      C1817   1.392   1_556  A
C1817      H1823   1.083       .  S
O1818      C1819   1.333   1_554  A
C1819      C1820   1.394       .  A
C1820      H1824   1.081       .  S
C1825      C1830   1.380       .  A
C1825      C1826   1.408       .  A
C1825      O1831   1.329       .  A
C1826      C1827   1.411       .  A
C1826      H1837   1.083       .  S
C1827      C1836   1.361       .  A
C1827      C1828   1.380       .  A
C1828      C1829   1.403       .  A
C1828      O1834   1.327       .  A
C1829      C1830   1.405       .  A
C1829      H1838   1.082       .  S
C1830      C1833   1.356       .  A
O1831      C1832   1.334       .  A
C1832      C1833   1.392       .  A
C1833      H1839   1.083       .  S
O1834      C1835   1.331       .  A
C1835      C1836   1.402       .  A
C1836      H1840   1.082       .  S
C1841      C1846   1.379   1_565  A
C1841      C1842   1.408       .  A
C1841      O1847   1.324       .  A
C1842      C1843   1.408       .  A
C1842      H1853   1.082       .  S
C1843      C1852   1.365       .  A
C1843      C1844   1.380   1_565  A
C1844      C1845   1.403       .  A
C1844      O1850   1.322       .  A
C1845      C1846   1.404       .  A
C1845      H1854   1.082       .  S
C1846      C1849   1.360       .  A
O1847      C1848   1.334   1_565  A
C1848      C1849   1.393       .  A
C1849      H1855   1.082       .  S
O1850      C1851   1.331       .  A
C1851      C1852   1.396   1_545  A
C1852      H1856   1.083       .  S
C1857      C1862   1.381   1_565  A
C1857      C1858   1.400       .  A
C1857      O1863   1.315       .  A
C1858      C1859   1.398       .  A
C1858      H1869   1.082       .  S
C1859      C1868   1.358       .  A
C1859      C1860   1.380   1_565  A
C1860      C1861   1.401       .  A
C1860      O1866   1.314       .  A
C1861      C1862   1.400       .  A
C1861      H1870   1.082       .  S
C1862      C1865   1.359       .  A
O1863      C1864   1.329   1_565  A
C1864      C1865   1.392       .  A
C1865      H1871   1.083       .  S
O1866      C1867   1.330       .  A
C1867      C1868   1.390   1_545  A
C1868      H1872   1.082       .  S
C1873      C1878   1.380       .  A
C1873      C1874   1.405       .  A
C1873      O1879   1.322       .  A
C1874      C1875   1.405       .  A
C1874      H1885   1.082       .  S
C1875      C1884   1.363       .  A
C1875      C1876   1.380       .  A
C1876      C1877   1.405       .  A
C1876      O1882   1.321       .  A
C1877      C1878   1.405       .  A
C1877      H1886   1.082       .  S
C1878      C1881   1.362       .  A
O1879      C1880   1.332       .  A
C1880      C1881   1.394       .  A
C1881      H1887   1.082       .  S
O1882      C1883   1.332       .  A
C1883      C1884   1.392       .  A
C1884      H1888   1.083       .  S
C1889      C1894   1.380       .  A
C1889      C1890   1.401       .  A
C1889      O1895   1.316       .  A
C1890      C1891   1.401       .  A
C1890      H1901   1.082       .  S
C1891      C1900   1.360       .  A
C1891      C1892   1.381       .  A
C1892      C1893   1.402       .  A
C1892      O1898   1.317       .  A
C1893      C1894   1.400       .  A
C1893      H1902   1.082       .  S
C1894      C1897   1.358       .  A
O1895      C1896   1.330       .  A
C1896      C1897   1.389       .  A
C1897      H1903   1.079       .  S
O1898      C1899   1.330       .  A
C1899      C1900   1.391       .  A
C1900      H1904   1.082       .  S
C1905      C1910   1.381       .  A
C1905      C1906   1.402       .  A
C1905      O1911   1.318       .  A
C1906      C1907   1.401       .  A
C1906      H1917   1.082       .  S
C1907      C1916   1.360       .  A
C1907      C1908   1.381       .  A
C1908      C1909   1.400       .  A
C1908      O1914   1.315       .  A
C1909      C1910   1.399       .  A
C1909      H1918   1.082       .  S
C1910      C1913   1.358       .  A
O1911      C1912   1.329       .  A
C1912      C1913   1.390       .  A
C1913      H1919   1.083       .  S
O1914      C1915   1.328       .  A
C1915      C1916   1.391       .  A
C1916      H1920   1.083       .  S
C1921      C1926   1.380       .  A
C1921      C1922   1.400       .  A
C1921      O1927   1.318       .  A
C1922      C1923   1.401       .  A
C1922      H1933   1.082       .  S
C1923      C1932   1.358       .  A
C1923      C1924   1.380       .  A
C1924      C1925   1.405       .  A
C1924      O1930   1.322       .  A
C1925      C1926   1.405       .  A
C1925      H1934   1.082       .  S
C1926      C1929   1.361       .  A
O1927      C1928   1.329       .  A
C1928      C1929   1.393       .  A
C1929      H1935   1.083       .  S
O1930      C1931   1.333       .  A
C1931      C1932   1.391       .  A
C1932      H1936   1.083       .  S
C1937      C1942   1.381       .  A
C1937      C1938   1.400       .  A
C1937      O1943   1.318       .  A
C1938      C1939   1.400       .  A
C1938      H1949   1.082       .  S
C1939      C1948   1.358       .  A
C1939      C1940   1.381       .  A
C1940      C1941   1.400       .  A
C1940      O1946   1.316       .  A
C1941      C1942   1.400       .  A
C1941      H1950   1.083       .  S
C1942      C1945   1.356       .  A
O1943      C1944   1.329       .  A
C1944      C1945   1.392       .  A
C1945      H1951   1.083       .  S
O1946      C1947   1.329       .  A
C1947      C1948   1.391       .  A
C1948      H1952   1.083       .  S
C1953      C1958   1.379       .  A
C1953      C1954   1.405       .  A
C1953      O1959   1.323       .  A
C1954      C1955   1.406       .  A
C1954      H1965   1.082       .  S
C1955      C1964   1.361       .  A
C1955      C1956   1.380       .  A
C1956      C1957   1.404       .  A
C1956      O1962   1.323       .  A
C1957      C1958   1.404       .  A
C1957      H1966   1.082       .  S
C1958      C1961   1.358       .  A
O1959      C1960   1.333       .  A
C1960      C1961   1.389       .  A
C1961      H1967   1.077       .  S
O1962      C1963   1.332       .  A
C1963      C1964   1.394       .  A
C1964      H1968   1.082       .  S
C1969      C1974   1.381       .  A
C1969      C1970   1.402       .  A
C1969      O1975   1.316       .  A
C1970      C1971   1.400       .  A
C1970      H1981   1.083       .  S
C1971      C1980   1.359       .  A
C1971      C1972   1.381       .  A
C1972      C1973   1.397       .  A
C1972      O1978   1.312       .  A
C1973      C1974   1.396       .  A
C1973      H1982   1.082       .  S
C1974      C1977   1.356       .  A
O1975      C1976   1.330       .  A
C1976      C1977   1.387       .  A
C1977      H1983   1.083       .  S
O1978      C1979   1.327       .  A
C1979      C1980   1.390       .  A
C1980      H1984   1.081       .  S
C1985      C1990   1.380       .  A
C1985      C1986   1.406       .  A
C1985      O1991   1.322       .  A
C1986      C1987   1.407       .  A
C1986      H1997   1.082       .  S
C1987      C1996   1.363       .  A
C1987      C1988   1.382       .  A
C1988      C1989   1.395       .  A
C1988      O1994   1.315       .  A
C1989      C1990   1.395       .  A
C1989      H1998   1.082       .  S
C1990      C1993   1.351       .  A
O1991      C1992   1.333       .  A
C1992      C1993   1.389       .  A
C1993      H1999   1.082       .  S
O1994      C1995   1.326       .  A
C1995      C1996   1.394       .  A
C1996      H2000   1.083       .  S
C2001      C2006   1.380       .  A
C2001      C2002   1.402       .  A
C2001      O2007   1.320       .  A
C2002      C2003   1.402       .  A
C2002      H2013   1.082       .  S
C2003      C2012   1.358       .  A
C2003      C2004   1.381       .  A
C2004      C2005   1.404       .  A
C2004      O2010   1.320       .  A
C2005      C2006   1.405       .  A
C2005      H2014   1.082       .  S
C2006      C2009   1.362       .  A
O2007      C2008   1.331       .  A
C2008      C2009   1.394       .  A
C2009      H2015   1.082       .  S
O2010      C2011   1.330       .  A
C2011      C2012   1.390       .  A
C2012      H2016   1.083       .  S
C2017      C2022   1.379       .  A
C2017      C2018   1.403       .  A
C2017      O2023   1.317       .  A
C2018      C2019   1.401       .  A
C2018      H2029   1.082       .  S
C2019      C2028   1.362       .  A
C2019      C2020   1.380       .  A
C2020      C2021   1.406       .  A
C2020      O2026   1.320       .  A
C2021      C2022   1.405       .  A
C2021      H2030   1.082       .  S
C2022      C2025   1.365       .  A
O2023      C2024   1.332       .  A
C2024      C2025   1.396       .  A
C2025      H2031   1.081       .  S
O2026      C2027   1.333       .  A
C2027      C2028   1.391       .  A
C2028      H2032   1.082       .  S
C2033      C2038   1.379       .  A
C2033      C2034   1.409       .  A
C2033      O2039   1.323       .  A
C2034      C2035   1.408       .  A
C2034      H2045   1.083       .  S
C2035      C2044   1.364       .  A
C2035      C2036   1.380       .  A
C2036      C2037   1.405       .  A
C2036      O2042   1.324       .  A
C2037      C2038   1.405       .  A
C2037      H2046   1.082       .  S
C2038      C2041   1.365       .  A
O2039      C2040   1.336       .  A
C2040      C2041   1.390       .  A
C2041      H2047   1.082       .  S
O2042      C2043   1.332       .  A
C2043      C2044   1.396       .  A
C2044      H2048   1.083       .  S
C2049      C2054   1.382       .  A
C2049      C2050   1.396       .  A
C2049      O2055   1.319       .  A
C2050      C2051   1.399       .  A
C2050      H2061   1.083       .  S
C2051      C2060   1.348       .  A
C2051      C2052   1.379       .  A
C2052      C2053   1.403       .  A
C2052      O2058   1.325       .  A
C2053      C2054   1.406       .  A
C2053      H2062   1.082       .  S
C2054      C2057   1.357       .  A
O2055      C2056   1.327       .  A
C2056      C2057   1.392       .  A
C2057      H2063   1.083       .  S
O2058      C2059   1.332       .  A
C2059      C2060   1.394       .  A
C2060      H2064   1.081       .  S
C2065      C2070   1.381   1_545  A
C2065      C2066   1.404       .  A
C2065      O2071   1.318       .  A
C2066      C2067   1.404       .  A
C2066      H2077   1.082       .  S
C2067      C2076   1.362       .  A
C2067      C2068   1.381   1_545  A
C2068      C2069   1.397       .  A
C2068      O2074   1.314       .  A
C2069      C2070   1.396       .  A
C2069      H2078   1.082       .  S
C2070      C2073   1.355       .  A
O2071      C2072   1.331       .  A
C2072      C2073   1.389   1_545  A
C2073      H2079   1.083       .  S
O2074      C2075   1.328   1_565  A
C2075      C2076   1.393       .  A
C2076      H2080   1.082       .  S
C2081      C2086   1.380   1_545  A
C2081      C2082   1.403       .  A
C2081      O2087   1.321       .  A
C2082      C2083   1.403       .  A
C2082      H2093   1.082       .  S
C2083      C2092   1.361       .  A
C2083      C2084   1.379   1_545  A
C2084      C2085   1.405       .  A
C2084      O2090   1.319       .  A
C2085      C2086   1.404       .  A
C2085      H2094   1.082       .  S
C2086      C2089   1.361       .  A
O2087      C2088   1.331       .  A
C2088      C2089   1.395   1_545  A
C2089      H2095   1.083       .  S
O2090      C2091   1.333   1_565  A
C2091      C2092   1.395       .  A
C2092      H2096   1.082       .  S
C2097      C2102   1.381       .  A
C2097      C2098   1.402       .  A
C2097      O2103   1.318       .  A
C2098      C2099   1.401       .  A
C2098      H2109   1.082       .  S
C2099      C2108   1.359       .  A
C2099      C2100   1.381       .  A
C2100      C2101   1.402       .  A
C2100      O2106   1.317       .  A
C2101      C2102   1.402       .  A
C2101      H2110   1.082       .  S
C2102      C2105   1.361       .  A
O2103      C2104   1.330       .  A
C2104      C2105   1.393       .  A
C2105      H2111   1.082       .  S
O2106      C2107   1.329       .  A
C2107      C2108   1.391       .  A
C2108      H2112   1.083       .  S
C2113      C2118   1.379       .  A
C2113      C2114   1.409       .  A
C2113      O2119   1.325       .  A
C2114      C2115   1.409       .  A
C2114      H2125   1.082       .  S
C2115      C2124   1.366       .  A
C2115      C2116   1.380       .  A
C2116      C2117   1.403       .  A
C2116      O2122   1.320       .  A
C2117      C2118   1.403       .  A
C2117      H2126   1.082       .  S
C2118      C2121   1.360       .  A
O2119      C2120   1.335       .  A
C2120      C2121   1.393       .  A
C2121      H2127   1.082       .  S
O2122      C2123   1.331       .  A
C2123      C2124   1.394       .  A
C2124      H2128   1.083       .  S
C2129      C2134   1.381       .  A
C2129      C2130   1.397       .  A
C2129      O2135   1.319       .  A
C2130      C2131   1.398       .  A
C2130      H2141   1.082       .  S
C2131      C2140   1.351       .  A
C2131      C2132   1.379       .  A
C2132      C2133   1.408       .  A
C2132      O2138   1.324       .  A
C2133      C2134   1.409       .  A
C2133      H2142   1.083       .  S
C2134      C2137   1.362       .  A
O2135      C2136   1.328       .  A
C2136      C2137   1.396       .  A
C2137      H2143   1.083       .  S
O2138      C2139   1.335       .  A
C2139      C2140   1.386       .  A
C2140      H2144   1.078       .  S
C2145      C2150   1.380       .  A
C2145      C2146   1.401       .  A
C2145      O2151   1.318       .  A
C2146      C2147   1.399       .  A
C2146      H2157   1.082       .  S
C2147      C2156   1.358       .  A
C2147      C2148   1.379       .  A
C2148      C2149   1.411       .  A
C2148      O2154   1.325       .  A
C2149      C2150   1.411       .  A
C2149      H2158   1.082       .  S
C2150      C2153   1.369       .  A
O2151      C2152   1.330       .  A
C2152      C2153   1.395       .  A
C2153      H2159   1.082       .  S
O2154      C2155   1.337       .  A
C2155      C2156   1.389       .  A
C2156      H2160   1.082       .  S
C2161      C2166   1.379       .  A
C2161      C2162   1.403       .  A
C2161      O2167   1.314       .  A
C2162      C2163   1.402       .  A
C2162      H2173   1.083       .  S
C2163      C2172   1.363       .  A
C2163      C2164   1.380       .  A
C2164      C2165   1.401       .  A
C2164      O2170   1.316       .  A
C2165      C2166   1.399       .  A
C2165      H2174   1.082       .  S
C2166      C2169   1.360       .  A
O2167      C2168   1.331       .  A
C2168      C2169   1.393       .  A
C2169      H2175   1.081       .  S
O2170      C2171   1.329       .  A
C2171      C2172   1.394       .  A
C2172      H2176   1.083       .  S
C2177      C2182   1.380       .  A
C2177      C2178   1.402       .  A
C2177      O2183   1.319       .  A
C2178      C2179   1.402       .  A
C2178      H2189   1.082       .  S
C2179      C2188   1.359       .  A
C2179      C2180   1.380       .  A
C2180      C2181   1.403       .  A
C2180      O2186   1.320       .  A
C2181      C2182   1.403       .  A
C2181      H2190   1.082       .  S
C2182      C2185   1.358       .  A
O2183      C2184   1.331       .  A
C2184      C2185   1.392       .  A
C2185      H2191   1.082       .  S
O2186      C2187   1.331       .  A
C2187      C2188   1.392       .  A
C2188      H2192   1.083       .  S
C2193      C2198   1.381       .  A
C2193      C2194   1.400       .  A
C2193      O2199   1.314       .  A
C2194      C2195   1.399       .  A
C2194      H2205   1.082       .  S
C2195      C2204   1.358       .  A
C2195      C2196   1.381       .  A
C2196      C2197   1.402       .  A
C2196      O2202   1.317       .  A
C2197      C2198   1.400       .  A
C2197      H2206   1.082       .  S
C2198      C2201   1.360       .  A
O2199      C2200   1.328       .  A
C2200      C2201   1.389       .  A
C2201      H2207   1.082       .  S
O2202      C2203   1.330       .  A
C2203      C2204   1.390       .  A
C2204      H2208   1.083       .  S
C2209      C2214   1.379       .  A
C2209      C2210   1.404       .  A
C2209      O2215   1.320       .  A
C2210      C2211   1.402       .  A
C2210      H2221   1.082       .  S
C2211      C2220   1.363       .  A
C2211      C2212   1.378       .  A
C2212      C2213   1.415       .  A
C2212      O2218   1.328       .  A
C2213      C2214   1.415       .  A
C2213      H2222   1.082       .  S
C2214      C2217   1.376       .  A
O2215      C2216   1.332       .  A
C2216      C2217   1.400       .  A
C2217      H2223   1.083       .  S
O2218      C2219   1.338       .  A
C2219      C2220   1.392       .  A
C2220      H2224   1.082       .  S
C2225      C2230   1.380       .  A
C2225      C2226   1.403       .  A
C2225      O2231   1.316       .  A
C2226      C2227   1.403       .  A
C2226      H2237   1.083       .  S
C2227      C2236   1.361       .  A
C2227      C2228   1.382       .  A
C2228      C2229   1.398       .  A
C2228      O2234   1.316       .  A
C2229      C2230   1.396       .  A
C2229      H2238   1.082       .  S
C2230      C2233   1.355       .  A
O2231      C2232   1.331       .  A
C2232      C2233   1.388       .  A
C2233      H2239   1.081       .  S
O2234      C2235   1.327       .  A
C2235      C2236   1.393       .  A
C2236      H2240   1.083       .  S
C2241      C2246   1.381       .  A
C2241      C2242   1.400       .  A
C2241      O2247   1.314       .  A
C2242      C2243   1.399       .  A
C2242      H2253   1.082       .  S
C2243      C2252   1.359       .  A
C2243      C2244   1.380       .  A
C2244      C2245   1.402       .  A
C2244      O2250   1.315       .  A
C2245      C2246   1.401       .  A
C2245      H2254   1.082       .  S
C2246      C2249   1.361       .  A
O2247      C2248   1.328       .  A
C2248      C2249   1.392       .  A
C2249      H2255   1.083       .  S
O2250      C2251   1.329       .  A
C2251      C2252   1.391       .  A
C2252      H2256   1.079       .  S
