geometry optimzed in LAMMPS
_audit_creation_date              2020-11-30 
_audit_creation_method            'lammps2cif' 
_symmetry_space_group_name_H-M    'P1' 
_symmetry_Int_Tables_number       1 
_symmetry_cell_setting            triclinic 
loop_ 
_symmetry_equiv_pos_as_xyz 
  x,y,z 
_cell_length_a                    37.06124483 
_cell_length_b                    36.7591415462788 
_cell_length_c                    44.953985943413336 
_cell_angle_alpha                 86.52298642621331 
_cell_angle_beta                  87.05468273543929 
_cell_angle_gamma                 89.42802588925038 
loop_ 
_atom_site_label 
_atom_site_type_symbol 
_atom_site_fract_x 
_atom_site_fract_y 
_atom_site_fract_z 
_atom_site_charge 
C1          C  0.14503758  0.10727508  0.02867541     0.86400
C2          C  0.17580499  0.08478797  0.04214948    -0.53900
C3          C  0.19081909  0.09934207  0.06570681     0.09300
C4          C  0.17640572  0.13817819  0.07148951     0.20200
C5          C  0.11921425  0.11735119  0.05508155    -0.54600
C6          C  0.13548102  0.13223884  0.07830107     0.09400
C7          C  0.16451439  0.14205953  0.01850208    -0.54100
C8          C  0.17957354  0.15969400  0.04023058     0.10000
H9          H  0.18488680  0.05874948  0.03459662     0.14500
H10         H  0.19097619  0.15059817  0.08918175     0.00200
H11         H  0.09039418  0.11252757  0.05516958     0.14800
H12         H  0.16550422  0.15282282  0.99539577     0.14600
C13         C  0.34820583  0.17440081  0.47806967     0.86400
C14         C  0.32812130  0.15194372  0.45593169    -0.53900
C15         C  0.31727087  0.17197941  0.43124455     0.09300
C16         C  0.32544103  0.21289976  0.43135373     0.20200
C17         C  0.37826043  0.19360545  0.45886804    -0.54600
C18         C  0.36719432  0.21336103  0.43418786     0.09400
C19         C  0.32074435  0.20408663  0.48537384    -0.54100
C20         C  0.30795274  0.22420058  0.46177236     0.10000
H21         H  0.32211927  0.12324384  0.45878058     0.14500
H22         H  0.31598536  0.22904752  0.41152509     0.00200
H23         H  0.40655130  0.18955830  0.46352550     0.14800
H24         H  0.30948674  0.20631173  0.50803103     0.14600
C25         C  0.05110405  0.33110526  0.45775764     0.86400
C26         C  0.07012910  0.35271990  0.43090773    -0.53900
C27         C  0.08448115  0.33191364  0.40884583     0.09300
C28         C  0.08124062  0.29058705  0.41730567     0.20200
C29         C  0.02440755  0.30840557  0.44242423    -0.54600
C30         C  0.03917153  0.28664949  0.42135917     0.09400
C31         C  0.07874938  0.30467009  0.46975398    -0.54100
C32         C  0.09691563  0.28483774  0.44941733     0.10000
H33         H  0.06789046  0.38215912  0.42777790     0.14500
H34         H  0.09352304  0.27272512  0.40048933     0.00200
H35         H  0.99559960  0.31360281  0.44471733     0.14800
H36         H  0.08654981  0.30540002  0.49274436     0.14600
O37         O  0.16308000  0.27767363  0.44510433    -0.57900
C38         C  0.27350108  0.24447290  0.46800977     0.74700
O39         O  0.20625465  0.30646761  0.03665302    -0.59100
C40         C  0.13326631  0.27209602  0.45969240     0.74700
C41         C  0.19243972  0.19670949  0.03051404     0.77000
Cd42       Cd  0.20161492  0.26474199  0.49209124     1.37500
O43         O  0.24824359  0.24842897  0.45011094    -0.57900
O44         O  0.19879609  0.19908689  0.50091206    -0.56800
C45         C  0.21023144  0.33489000  0.01951613     0.77000
O46         O  0.17862328  0.22547855  0.04050311    -0.59100
O47         O  0.26436546  0.26049148  0.99115460    -0.60000
O48         O  0.13309707  0.25524068  0.98884718    -0.57600
O49         O  0.21167835  0.33102188  0.48947476    -0.56700
C50         C  0.29036956  0.07584280  0.23708170     0.86400
C51         C  0.30753908  0.10179391  0.21176791    -0.53900
C52         C  0.32508428  0.08421405  0.18922760     0.09300
C53         C  0.32626872  0.04268184  0.19461264     0.20200
C54         C  0.26751987  0.04964176  0.22073568    -0.54600
C55         C  0.28564781  0.03251394  0.19820558     0.09400
C56         C  0.32272111  0.05332668  0.24752390    -0.54100
C57         C  0.34234339  0.03666226  0.22583778     0.10000
H58         H  0.30617098  0.13116677  0.21059326     0.14500
H59         H  0.34138610  0.02863297  0.17660767     0.00200
H60         H  0.23833170  0.04838154  0.22439303     0.14800
H61         H  0.33126042  0.05342046  0.27030191     0.14600
C62         C  0.28211654  0.40491363  0.02289719     0.86400
C63         C  0.26176619  0.43570565  0.03792248    -0.53900
C64         C  0.23473549  0.42504206  0.05831106     0.09300
C65         C  0.22929804  0.38257677  0.06056619     0.20200
C66         C  0.29402820  0.38030121  0.05058106    -0.54600
C67         C  0.26615706  0.36864859  0.07091850     0.09400
C68         C  0.25372227  0.38196681  0.00984464    -0.54100
C69         C  0.22685012  0.36912251  0.02864006     0.10000
H70         H  0.27175079  0.46350870  0.03575524     0.14500
H71         H  0.20502379  0.37309088  0.07359649     0.00200
H72         H  0.32170219  0.37507392  0.05556849     0.14800
H73         H  0.25779335  0.37227513  0.98747521     0.14600
C74         C  0.37249973  0.35172099  0.26860917     0.86400
C75         C  0.39496235  0.31994287  0.28191119    -0.53900
C76         C  0.41749619  0.32948677  0.30337782     0.09300
C77         C  0.41727890  0.37108513  0.30817635     0.20200
C78         C  0.35417187  0.36930402  0.29603790    -0.54600
C79         C  0.37747308  0.37900645  0.31680559     0.09400
C80         C  0.40232222  0.37765290  0.25629060    -0.54100
C81         C  0.42403893  0.39034746  0.27667370     0.10000
H82         H  0.39387476  0.29223482  0.27533508     0.14500
H83         H  0.43621549  0.37917064  0.32493427     0.00200
H84         H  0.32507218  0.37212364  0.29933677     0.14800
H85         H  0.40372067  0.38808421  0.23311679     0.14600
O86         O  0.48449885  0.51354084  0.20119244    -0.57900
C87         C  0.37932349  0.02313841  0.23247739     0.74700
O88         O  0.44933314  0.44846060  0.28811857    -0.59100
C89         C  0.01429777  0.49909427  0.20825827     0.74700
C90         C  0.47448981  0.05684246  0.28860058     0.77000
Cd91       Cd  0.45252140  0.50293428  0.24966859     1.37500
O92         O  0.40304278  0.01509787  0.21267075    -0.57900
O93         O  0.46889669  0.06640750  0.26170175    -0.56800
C94         C  0.43969466  0.42707854  0.26905511     0.77000
O95         O  0.46717370  0.02414433  0.29712489    -0.59100
O96         O  0.38951458  0.02125128  0.25896991    -0.57600
O97         O  0.01715491  0.48926507  0.23546501    -0.57600
O98         O  0.44004357  0.44022730  0.24239645    -0.56700
C99         C  0.05437058  0.44667685  0.14611462     0.86400
C100        C  0.06562138  0.42026531  0.17238465    -0.53900
C101        C  0.07953224  0.43675950  0.19586611     0.09300
C102        C  0.08143941  0.47847404  0.19030730     0.20200
C103        C  0.02814293  0.47228981  0.16177153    -0.54600
C104        C  0.04150470  0.48904300  0.18495400     0.09400
C105        C  0.08758496  0.46893038  0.13698308    -0.54100
C106        C  0.10291626  0.48476088  0.15955479     0.10000
H107        H  0.06096273  0.39118202  0.17307655     0.14500
H108        H  0.09227996  0.49320589  0.20865593     0.00200
H109        H  0.99927929  0.47135618  0.15862919     0.14800
H110        H  0.10028083  0.46893141  0.11460542     0.14600
O111        O  0.16578825  0.46974393  0.15412012    -0.57900
C112        C  0.26437256  0.01864405  0.17406355     0.74700
O113        O  0.25158564  0.46694179  0.09465579    -0.59100
C114        C  0.14141771  0.49427683  0.15375281     0.74700
C115        C  0.20450041  0.07246876  0.08830471     0.77000
Cd116      Cd  0.21361611  0.50728116  0.12708412     1.37500
O117        O  0.23303055  0.00591457  0.17942817    -0.57900
O118        O  0.19539875  0.07301552  0.11573305    -0.56800
C119        C  0.22661301  0.44996484  0.08321694     0.77000
O120        O  0.22125455  0.04434402  0.08031043    -0.59100
O121        O  0.27448102  0.02255653  0.14678478    -0.57600
O122        O  0.15078541  0.52540217  0.14262784    -0.57600
O123        O  0.19503548  0.45685204  0.09346137    -0.56700
C124        C  0.03843871  0.08858399  0.34440112     0.86400
C125        C  0.51247893  0.06395205  0.33012946    -0.53900
C126        C  0.49250824  0.08048396  0.30863064     0.09300
C127        C  0.50075872  0.12164590  0.30272203     0.20200
C128        C  0.06161674  0.10590258  0.31749848    -0.54600
C129        C  0.04183289  0.12140074  0.29488370     0.09400
C130        C  0.51613514  0.12079072  0.35473563    -0.54100
C131        C  0.49664201  0.13875306  0.33373993     0.10000
H132        H  0.51230089  0.03464331  0.33522265     0.14500
H133        H  0.48440212  0.13516862  0.28518912     0.00200
H134        H  0.09079574  0.10540328  0.31496619     0.14800
H135        H  0.51744108  0.12993982  0.37722637     0.14600
O136        O  0.42797104  0.22555597  0.41614049    -0.57900
C137        C  0.01370597  0.27074051  0.40086634     0.74700
O138        O  0.47591998  0.20140505  0.32462186    -0.59100
C139        C  0.39495883  0.22590018  0.41058825     0.74700
C140        C  0.43323690  0.30094202  0.32381078     0.77000
Cd141      Cd  0.45552631  0.24291738  0.36655112     1.37500
O142        O  0.48007764  0.27474655  0.40586979    -0.57900
O143        O  0.45290278  0.30812285  0.34484144    -0.56800
C144        C  0.47916273  0.17358866  0.34222027     0.77000
O145        O  0.42550782  0.26770098  0.32218340    -0.59100
O146        O  0.52283449  0.25383052  0.37784464    -0.57600
O147        O  0.38820569  0.23504385  0.38383650    -0.57600
O148        O  0.47004088  0.17799125  0.36924605    -0.56700
C149        C  0.34584956  0.34549725  0.24399338     0.01200
C150        C  0.33510020  0.37611064  0.22549921     0.04000
C151        C  0.32266515  0.37123729  0.19709317    -0.12000
C152        C  0.31449229  0.33608052  0.18866231     0.23300
C153        C  0.31735194  0.30621305  0.20964749    -0.12600
C154        C  0.33289767  0.31079467  0.23732747     0.04700
C155        C  0.29717412  0.33274995  0.15972940     0.27200
C156        C  0.26234944  0.34708778  0.15665614    -0.13300
C157        C  0.25009864  0.35713370  0.12810037     0.05300
C158        C  0.27228976  0.35030355  0.10173396    -0.09300
C159        C  0.30311338  0.32747603  0.10579131     0.06100
C160        C  0.31655478  0.32058139  0.13448181    -0.13600
Br161      Br  0.29780569  0.25974278  0.20104308    -0.05700
Br162      Br  0.33557804  0.42527862  0.23901022    -0.00100
Br163      Br  0.20341766  0.38076641  0.12890836     0.00400
Br164      Br  0.36202011  0.29555162  0.13921915    -0.04000
Br165      Br  0.32748263  0.27198281  0.26794939     0.00500
Br166      Br  0.31679560  0.41329761  0.16959542    -0.03300
Br167      Br  0.23291552  0.35555909  0.19267030    -0.04200
Br168      Br  0.32525432  0.30244576  0.07287735    -0.00200
C169        C  0.36559828  0.39046455  0.34711465     0.01200
C170        C  0.36892448  0.42703781  0.35435637     0.04000
C171        C  0.36262393  0.43686149  0.38405048    -0.12000
C172        C  0.35017551  0.41070176  0.40639617     0.23300
C173        C  0.34522480  0.37439374  0.39891570    -0.12600
C174        C  0.35336107  0.36421175  0.36953771     0.04700
C175        C  0.33786831  0.42187557  0.43672416     0.27200
C176        C  0.35870504  0.41416780  0.46175434    -0.13300
C177        C  0.34337065  0.41790292  0.49097529     0.05300
C178        C  0.30625431  0.42728176  0.49515630    -0.09300
C179        C  0.28912879  0.44354517  0.46972267     0.06100
C180        C  0.30400077  0.43887455  0.44075284    -0.13600
Br181      Br  0.32633126  0.33871632  0.42890641    -0.05700
Br182      Br  0.37830661  0.46440599  0.32319966    -0.00100
Br183      Br  0.37627817  0.40110948  0.02351385     0.00400
Br184      Br  0.27606081  0.45216198  0.40647716    -0.04000
Br185      Br  0.34664271  0.31434310  0.36000476     0.00500
Br186      Br  0.37080158  0.48627396  0.39419427    -0.03300
Br187      Br  0.40797522  0.39770613  0.45570077    -0.04200
Br188      Br  0.24269213  0.46802865  0.47329325    -0.00200
C189        C  0.03581197  0.35337776  0.48326777     0.01200
C190        C  0.05679924  0.38256311  0.49255159     0.04000
C191        C  0.04080858  0.40117740  0.01726162    -0.12000
C192        C  0.01318549  0.38769010  0.03726539     0.23300
C193        C  0.99339066  0.35723156  0.03094368    -0.12600
C194        C  0.00394729  0.33732398  0.00616760     0.04700
C195        C  0.01480016  0.39770746  0.06834897     0.27200
C196        C  0.04053458  0.37927690  0.08571357    -0.13300
C197        C  0.05483908  0.39606201  0.10955155     0.05300
C198        C  0.03968045  0.42931573  0.11914756    -0.09300
C199        C  0.01458143  0.44830297  0.10046758     0.06100
C200        C  0.00065054  0.43128711  0.07643012    -0.13600
Br201      Br  0.45502943  0.34047118  0.05911687    -0.05700
Br202      Br  0.10654607  0.39122110  0.47804527    -0.00100
Br203      Br  0.10094863  0.37741837  0.12260074     0.00400
Br204      Br  0.96541871  0.45560064  0.05172895    -0.04000
Br205      Br  0.98584940  0.29210190  0.50219596     0.00500
Br206      Br  0.06634924  0.44474517  0.02574444    -0.03300
Br207      Br  0.05956070  0.33246585  0.07442844    -0.04200
Br208      Br  0.00583085  0.50037543  0.10112928    -0.00200
C209        C  0.08578381  0.41734373  0.22561237     0.01200
C210        C  0.11605503  0.42582691  0.24202055     0.04000
C211        C  0.11891341  0.41156634  0.27165619    -0.12000
C212        C  0.09411095  0.38542823  0.28404168     0.23300
C213        C  0.06619387  0.37396255  0.26678850    -0.12600
C214        C  0.06024660  0.39177943  0.23886109     0.04700
C215        C  0.09392543  0.37346875  0.31630165     0.27200
C216        C  0.11945386  0.34815542  0.32744046    -0.13300
C217        C  0.11782808  0.33654944  0.35802622     0.05300
C218        C  0.08836925  0.34705282  0.37702671    -0.09300
C219        C  0.06151670  0.37085486  0.36490865     0.06100
C220        C  0.06614755  0.38614162  0.33559310    -0.13600
Br221      Br  0.03490245  0.33469835  0.28236747    -0.05700
Br222      Br  0.15482987  0.45590073  0.22455515    -0.00100
Br223      Br  0.15671410  0.30713677  0.37359666     0.00400
Br224      Br  0.03382749  0.42443611  0.32147763    -0.04000
Br225      Br  0.01400125  0.38431121  0.22213232     0.00500
Br226      Br  0.15568336  0.42933037  0.29596043    -0.03300
Br227      Br  0.15581671  0.32849434  0.30050674    -0.04200
Br228      Br  0.01540702  0.37959133  0.38568228    -0.00200
C229        C  0.33486790  0.10196062  0.15949398     0.01200
C230        C  0.30723376  0.11381117  0.14055850     0.04000
C231        C  0.31581601  0.12395308  0.11043473    -0.12000
C232        C  0.35190536  0.12257221  0.09918188     0.23300
C233        C  0.37968524  0.11249328  0.11827194    -0.12600
C234        C  0.37118477  0.10250814  0.14849330     0.04700
C235        C  0.36040732  0.13439698  0.06765619     0.27200
C236        C  0.35929504  0.10954817  0.04511840    -0.13300
C237        C  0.35917503  0.11800495  0.51477390     0.05300
C238        C  0.36151288  0.15603082  0.50739345    -0.09300
C239        C  0.36904796  0.18407934  0.03004392     0.06100
C240        C  0.36801228  0.17120487  0.06007195    -0.13600
Br241      Br  0.42922767  0.11240353  0.10279969    -0.05700
Br242      Br  0.25739387  0.11574453  0.15530892    -0.00100
Br243      Br  0.37007764  0.08275285  0.48543732     0.00400
Br244      Br  0.37410101  0.20440671  0.09111799    -0.04000
Br245      Br  0.40941719  0.09155902  0.17509686     0.00500
Br246      Br  0.27817106  0.13962447  0.08424546    -0.03300
Br247      Br  0.35377484  0.05820421  0.05562699    -0.04200
Br248      Br  0.38217348  0.23444907  0.02032394    -0.00200
C249        C  0.30430682  0.15524210  0.40458525     0.01200
C250        C  0.32959089  0.14004198  0.38420131     0.04000
C251        C  0.31830768  0.12836515  0.35699770    -0.12000
C252        C  0.28165538  0.13126098  0.35022853     0.23300
C253        C  0.25610788  0.14485731  0.37106933    -0.12600
C254        C  0.26740327  0.15659394  0.39833287     0.04700
C255        C  0.27049711  0.11904491  0.32130208     0.27200
C256        C  0.27048100  0.14351769  0.29603892    -0.13300
C257        C  0.26775644  0.13024434  0.26753299     0.05300
C258        C  0.27030312  0.09219535  0.26416000    -0.09300
C259        C  0.26165642  0.06875721  0.28987395     0.06100
C260        C  0.26254032  0.08220480  0.31844377    -0.13600
Br261      Br  0.20581436  0.14749420  0.36197437    -0.05700
Br262      Br  0.37976646  0.13475878  0.39340189    -0.00100
Br263      Br  0.25141741  0.16339708  0.23602911     0.00400
Br264      Br  0.25617827  0.04982068  0.35371475    -0.04000
Br265      Br  0.23208324  0.17260421  0.42763642     0.00500
Br266      Br  0.35316732  0.10881956  0.32859727    -0.03300
Br267      Br  0.27577532  0.19490167  0.30053759    -0.04200
Br268      Br  0.25180523  0.01763047  0.28675725    -0.00200
C269        C  0.11713332  0.13687144  0.10878445     0.01200
C270        C  0.12689917  0.16586858  0.12624283     0.04000
C271        C  0.11679556  0.16530070  0.15699872    -0.12000
C272        C  0.09113374  0.14005922  0.16952670     0.23300
C273        C  0.07686306  0.11468185  0.15110833    -0.12600
C274        C  0.09222665  0.11061972  0.12211997     0.04700
C275        C  0.08123067  0.13758991  0.20234258     0.27200
C276        C  0.09144931  0.10636236  0.21977869    -0.13300
C277        C  0.07736473  0.10028644  0.24931841     0.05300
C278        C  0.05723423  0.12801777  0.26347611    -0.09300
C279        C  0.04976673  0.16077725  0.24668104     0.06100
C280        C  0.06009454  0.16476873  0.21594078    -0.13600
Br281      Br  0.03666775  0.08464781  0.16615513    -0.05700
Br282      Br  0.15129959  0.20847641  0.10846690    -0.00100
Br283      Br  0.08246191  0.05192724  0.26819656     0.00400
Br284      Br  0.04406866  0.20689651  0.19232198    -0.04000
Br285      Br  0.08211027  0.06574002  0.10398318     0.00500
Br286      Br  0.14016374  0.19750171  0.18228732    -0.03300
Br287      Br  0.12518784  0.07172852  0.20311079    -0.04200
Br288      Br  0.52653262  0.20095629  0.26572500    -0.00200
C289        C  0.12596995  0.09118558  0.00298732     0.01200
C290        C  0.09116729  0.11348330  0.49653785     0.04000
C291        C  0.08097969  0.10371022  0.46865284    -0.12000
C292        C  0.09015238  0.06900138  0.45901005     0.23300
C293        C  0.10596844  0.04289320  0.47842655    -0.12600
C294        C  0.11687967  0.05298736  0.50624707     0.04700
C295        C  0.07979115  0.05972984  0.42934696     0.27200
C296        C  0.04345831  0.05280319  0.42516615    -0.13300
C297        C  0.03043516  0.05780336  0.39654897     0.05300
C298        C  0.05462956  0.06865829  0.37171998    -0.09300
C299        C  0.09230499  0.06521753  0.37570817     0.06100
C300        C  0.10469613  0.06342715  0.40478654    -0.13600
Br301      Br  0.11251935  0.99372096  0.46642536    -0.05700
Br302      Br  0.07353432  0.15936944  0.51098870    -0.00100
Br303      Br  0.47847207  0.05398571  0.39353416     0.00400
Br304      Br  0.15545835  0.06843099  0.41124088    -0.04000
Br305      Br  0.13088458  0.01607027  0.02890843     0.00500
Br306      Br  0.05606840  0.13871628  0.44295063    -0.03300
Br307      Br  0.01099884  0.04144407  0.45955227    -0.04200
Br308      Br  0.12709928  0.05618249  0.34362163    -0.00200
C309        C  0.13807676  0.10687066  0.53557800     0.86400
C310        C  0.17113951  0.08537855  0.54649752    -0.53900
C311        C  0.18932296  0.10110160  0.56797151     0.09300
C312        C  0.17549263  0.14059435  0.57327900     0.20200
C313        C  0.11627181  0.11752271  0.56369343    -0.54600
C314        C  0.13560132  0.13445835  0.58376187     0.09400
C315        C  0.15550721  0.14156438  0.52228731    -0.54100
C316        C  0.17436620  0.16043638  0.54120575     0.10000
H317        H  0.17927086  0.05893604  0.53929292     0.14500
H318        H  0.19147860  0.15495701  0.58911823     0.00200
H319        H  0.08799951  0.11046841  0.56799683     0.14800
H320        H  0.15245143  0.15100534  0.49913988     0.14600
C321        C  0.34508903  0.17698658  0.97853870     0.86400
C322        C  0.32556118  0.15250881  0.95754807    -0.53900
C323        C  0.31403399  0.17073120  0.93224512     0.09300
C324        C  0.32116385  0.21203470  0.93072461     0.20200
C325        C  0.37440546  0.19595787  0.95876622    -0.54600
C326        C  0.36290035  0.21381136  0.93348846     0.09400
C327        C  0.31687209  0.20630771  0.98496584    -0.54100
C328        C  0.30360783  0.22481921  0.96072869     0.10000
H329        H  0.32071169  0.12367537  0.96164903     0.14500
H330        H  0.31132343  0.22677384  0.91037812     0.00200
H331        H  0.40276407  0.19292438  0.96356285     0.14800
H332        H  0.30580278  0.20975707  0.00751547     0.14600
C333        C  0.04753480  0.32690273  0.96065091     0.86400
C334        C  0.06692815  0.34757719  0.93347410    -0.53900
C335        C  0.08077337  0.32601622  0.91177437     0.09300
C336        C  0.07672011  0.28505723  0.92081026     0.20200
C337        C  0.02023398  0.30431807  0.94562353    -0.54600
C338        C  0.03466727  0.28213090  0.92469711     0.09400
C339        C  0.07474557  0.30011803  0.97299478    -0.54100
C340        C  0.09239064  0.27957378  0.95285094     0.10000
H341        H  0.06488806  0.37693823  0.92965199     0.14500
H342        H  0.08851606  0.26647313  0.90434275     0.00200
H343        H  0.99141391  0.30957911  0.94820960     0.14800
H344        H  0.08306071  0.30141023  0.99579923     0.14600
O345        O  0.15855185  0.27678320  0.94793584    -0.57900
C346        C  0.26943830  0.24574176  0.96655724     0.74700
O347        O  0.20671714  0.30861559  0.53453473    -0.59100
C348        C  0.12933700  0.26809004  0.96239461     0.74700
C349        C  0.18877841  0.19616505  0.52830991     0.77000
Cd350      Cd  0.19861448  0.26456825  0.99362241     1.37500
O351        O  0.24207308  0.24478364  0.95082480    -0.57900
O352        O  0.21131494  0.20080947  0.00635006    -0.56800
C353        C  0.21383189  0.33612327  0.51695163     0.77000
O354        O  0.18685157  0.22578264  0.54137134    -0.59100
O355        O  0.26608790  0.25432923  0.49409433    -0.60000
O356        O  0.13609157  0.26090377  0.48669841    -0.57600
O357        O  0.20479730  0.33106053  0.99228464    -0.56700
C358        C  0.29274860  0.06905177  0.73832884     0.86400
C359        C  0.30890279  0.09560282  0.71288499    -0.53900
C360        C  0.32626707  0.07855509  0.68987960     0.09300
C361        C  0.32824760  0.03702440  0.69496460     0.20200
C362        C  0.27002399  0.04250921  0.72216807    -0.54600
C363        C  0.28788719  0.02626696  0.69897763     0.09400
C364        C  0.32575242  0.04719448  0.74795240    -0.54100
C365        C  0.34492578  0.03079387  0.72591618     0.10000
H366        H  0.30715292  0.12488878  0.71206812     0.14500
H367        H  0.34322066  0.02332704  0.67668933     0.00200
H368        H  0.24092110  0.04077670  0.72626450     0.14800
H369        H  0.33477650  0.04713273  0.77059835     0.14600
C370        C  0.28118842  0.41132084  0.52158629     0.86400
C371        C  0.25842709  0.44004662  0.53712558    -0.53900
C372        C  0.23231905  0.42688039  0.55729914     0.09300
C373        C  0.23029256  0.38403835  0.55874789     0.20200
C374        C  0.29492782  0.38697841  0.54870615    -0.54600
C375        C  0.26798733  0.37272294  0.56874935     0.09400
C376        C  0.25473896  0.38657493  0.50789008    -0.54100
C377        C  0.22898277  0.37104850  0.52654133     0.10000
H378        H  0.26660307  0.46846132  0.53587137     0.14500
H379        H  0.20685796  0.37230410  0.57165561     0.00200
H380        H  0.32291332  0.38325353  0.55328477     0.14800
H381        H  0.25943770  0.37811620  0.48520728     0.14600
C382        C  0.37316416  0.34608369  0.76738731     0.86400
C383        C  0.39516518  0.31380639  0.78060170    -0.53900
C384        C  0.41795612  0.32305244  0.80205158     0.09300
C385        C  0.41806342  0.36445017  0.80719011     0.20200
C386        C  0.35497711  0.36343037  0.79497562    -0.54600
C387        C  0.37834073  0.37263956  0.81584087     0.09400
C388        C  0.40333030  0.37178624  0.75536905    -0.54100
C389        C  0.42514735  0.38383557  0.77591802     0.10000
H390        H  0.39342371  0.28604904  0.77422957     0.14500
H391        H  0.43705445  0.37216988  0.82403439     0.00200
H392        H  0.32589020  0.36632561  0.79834578     0.14800
H393        H  0.40482668  0.38267154  0.73230793     0.14600
O394        O  0.48712310  0.50678106  0.70295119    -0.57900
C395        C  0.38152711  0.01636753  0.73243591     0.74700
O396        O  0.45102391  0.44109799  0.78829430    -0.59100
C397        C  0.01674099  0.49223298  0.71044837     0.74700
C398        C  0.46971710  0.05098286  0.79088293     0.77000
Cd399      Cd  0.45384739  0.49599394  0.75070672     1.37500
O400        O  0.40557581  0.00904836  0.71266902    -0.57900
O401        O  0.46968102  0.05856990  0.76311768    -0.56800
C402        C  0.44119553  0.42033747  0.76884247     0.77000
O403        O  0.46076054  0.01877978  0.79971506    -0.59100
O404        O  0.39104541  0.01305420  0.75905882    -0.57600
O405        O  0.01918047  0.48288074  0.73783182    -0.57600
O406        O  0.44160338  0.43398125  0.74234296    -0.56700
C407        C  0.05632734  0.43965649  0.64796818     0.86400
C408        C  0.06603523  0.41214842  0.67389665    -0.53900
C409        C  0.07982223  0.42751463  0.69795527     0.09300
C410        C  0.08346567  0.46929335  0.69322239     0.20200
C411        C  0.03069649  0.46584047  0.66368703    -0.54600
C412        C  0.04409446  0.48154615  0.68739277     0.09400
C413        C  0.09047504  0.46065939  0.63980686    -0.54100
C414        C  0.10591693  0.47527989  0.66290308     0.10000
H415        H  0.06057560  0.38325771  0.67388062     0.14500
H416        H  0.09456898  0.48292718  0.71206114     0.00200
H417        H  0.00193939  0.46615516  0.65995100     0.14800
H418        H  0.10329075  0.46126733  0.61744612     0.14600
O419        O  0.16614564  0.46351206  0.64517820    -0.57900
C420        C  0.26617973  0.01413347  0.67444705     0.74700
O421        O  0.24708530  0.45514698  0.60259884    -0.59100
C422        C  0.14435024  0.48557243  0.65730411     0.74700
C423        C  0.20381816  0.07416546  0.59061554     0.77000
Cd424      Cd  0.21389119  0.50638952  0.62824630     1.37500
O425        O  0.23502839  0.00099316  0.67980458    -0.57900
O426        O  0.19214780  0.07195874  0.61757082    -0.56800
C427        C  0.22421596  0.45044279  0.58303475     0.77000
O428        O  0.22348212  0.04786383  0.58265574    -0.59100
O429        O  0.27557672  0.02012102  0.64711435    -0.57600
O430        O  0.15582048  0.51756610  0.65920986    -0.57600
O431        O  0.19597683  0.46989692  0.58497501    -0.56700
C432        C  0.03639515  0.08339765  0.84165872     0.86400
C433        C  0.50768749  0.05921146  0.83095282    -0.53900
C434        C  0.48473335  0.07571829  0.81178333     0.09300
C435        C  0.49194344  0.11742618  0.80598627     0.20200
C436        C  0.05457426  0.10058999  0.81204557    -0.54600
C437        C  0.03135448  0.11920651  0.79298828     0.09400
C438        C  0.51660876  0.11568670  0.85493725    -0.54100
C439        C  0.49358107  0.13366709  0.83684214     0.10000
H440        H  0.50908415  0.02975978  0.83510077     0.14500
H441        H  0.47104962  0.13212859  0.79369932     0.00200
H442        H  0.08273777  0.09817005  0.80609783     0.14800
H443        H  0.52201789  0.12480989  0.87683211     0.14600
O444        O  0.42343880  0.22679241  0.91642104    -0.57900
C445        C  0.00965106  0.26723696  0.90335791     0.74700
O446        O  0.47017679  0.19480665  0.82765281    -0.59100
C447        C  0.39089677  0.22499872  0.90988035     0.74700
C448        C  0.43343007  0.29479543  0.82273765     0.77000
Cd449      Cd  0.45321842  0.23884713  0.86772332     1.37500
O450        O  0.47623321  0.27431274  0.90597198    -0.57900
O451        O  0.45317316  0.30243580  0.84359982    -0.56800
C452        C  0.47756945  0.16870986  0.84597626     0.77000
O453        O  0.42513717  0.26163158  0.82180292    -0.59100
O454        O  0.51930946  0.24776663  0.88190019    -0.57600
O455        O  0.38520587  0.23036373  0.88248317    -0.57600
O456        O  0.47296000  0.17494665  0.87324473    -0.56700
C457        C  0.34662291  0.34128036  0.74243550     0.01200
C458        C  0.33622976  0.37299035  0.72504005     0.04000
C459        C  0.32541068  0.37008682  0.69588828    -0.12000
C460        C  0.31790240  0.33568943  0.68559294     0.23300
C461        C  0.32032217  0.30446717  0.70526374    -0.12600
C462        C  0.33452174  0.30713151  0.73373090     0.04700
C463        C  0.30096969  0.33445317  0.65632673     0.27200
C464        C  0.26591133  0.34849741  0.65382205    -0.13300
C465        C  0.25298542  0.35876170  0.62557678     0.05300
C466        C  0.27523668  0.35362269  0.59894602    -0.09300
C467        C  0.30697051  0.33191857  0.60213387     0.06100
C468        C  0.32060089  0.32394788  0.63061249    -0.13600
Br469      Br  0.30224360  0.25862815  0.69364606    -0.05700
Br470      Br  0.33596327  0.42104797  0.74075604    -0.00100
Br471      Br  0.20500861  0.37981991  0.62702441     0.00400
Br472      Br  0.36667042  0.29975942  0.63444064    -0.04000
Br473      Br  0.32795423  0.26642487  0.76252938     0.00500
Br474      Br  0.32087271  0.41376085  0.66991420    -0.03300
Br475      Br  0.23681715  0.35613351  0.69019192    -0.04200
Br476      Br  0.33026861  0.30983627  0.56815270    -0.00200
C477        C  0.36651963  0.38327216  0.84638147     0.01200
C478        C  0.36985715  0.41955884  0.85430628     0.04000
C479        C  0.36351004  0.42852801  0.88423158    -0.12000
C480        C  0.35109089  0.40175667  0.90615186     0.23300
C481        C  0.34601799  0.36577295  0.89789572    -0.12600
C482        C  0.35416900  0.35647384  0.86829164     0.04700
C483        C  0.33887546  0.41203272  0.93682021     0.27200
C484        C  0.35930427  0.40269092  0.96181836    -0.13300
C485        C  0.34423794  0.40640886  0.99118627     0.05300
C486        C  0.30772889  0.41813922  0.99567817    -0.09300
C487        C  0.29102709  0.43494958  0.97014497     0.06100
C488        C  0.30548739  0.42982807  0.94109806    -0.13600
Br489      Br  0.32663233  0.32936413  0.92703406    -0.05700
Br490      Br  0.37931585  0.45764998  0.82371892    -0.00100
Br491      Br  0.37536586  0.41736450  0.52337942     0.00400
Br492      Br  0.27739190  0.44349765  0.90694492    -0.04000
Br493      Br  0.34708440  0.30709727  0.85767776     0.00500
Br494      Br  0.37140596  0.47766562  0.89518453    -0.03300
Br495      Br  0.40768310  0.38371986  0.95543787    -0.04200
Br496      Br  0.24530716  0.46089283  0.97357119    -0.00200
C497        C  0.03266506  0.35020692  0.98568402     0.01200
C498        C  0.05276695  0.38091879  0.99333106     0.04000
C499        C  0.04531017  0.40122738  0.51749789    -0.12000
C500        C  0.01633453  0.38813042  0.53619513     0.23300
C501        C  0.99529184  0.35953740  0.52797624    -0.12600
C502        C  0.00603811  0.34053578  0.50274976     0.04700
C503        C  0.01725125  0.39597454  0.56784418     0.27200
C504        C  0.04241892  0.37605455  0.58482410    -0.13300
C505        C  0.05631767  0.39088652  0.60976167     0.05300
C506        C  0.04174787  0.42394441  0.62027997    -0.09300
C507        C  0.01793967  0.44475818  0.60164758     0.06100
C508        C  0.00376826  0.42937749  0.57696993    -0.13600
Br509      Br  0.45476271  0.34376495  0.55426159    -0.05700
Br510      Br  0.10230682  0.39006651  0.97860531    -0.00100
Br511      Br  0.10137275  0.37011636  0.62333824     0.00400
Br512      Br  0.96968666  0.45606490  0.55266379    -0.04000
Br513      Br  0.98489301  0.28831055  0.00690335     0.00500
Br514      Br  0.07327720  0.44122177  0.52957153    -0.03300
Br515      Br  0.06176609  0.33037597  0.57119908    -0.04200
Br516      Br  0.01232072  0.49722213  0.60305301    -0.00200
C517        C  0.08448560  0.40725288  0.72751069     0.01200
C518        C  0.11475047  0.41419158  0.74434728     0.04000
C519        C  0.11605422  0.40026155  0.77415411    -0.12000
C520        C  0.08948734  0.37585433  0.78634798     0.23300
C521        C  0.06116959  0.36593662  0.76882879    -0.12600
C522        C  0.05731004  0.38315832  0.74033645     0.04700
C523        C  0.08867964  0.36390815  0.81854807     0.27200
C524        C  0.11345936  0.33787559  0.82975738    -0.13300
C525        C  0.11256623  0.32769295  0.86054739     0.05300
C526        C  0.08411023  0.34000136  0.87972690    -0.09300
C527        C  0.05755055  0.36408801  0.86751190     0.06100
C528        C  0.06197320  0.37830956  0.83790715    -0.13600
Br529      Br  0.02634591  0.33003020  0.78484913    -0.05700
Br530      Br  0.15558285  0.44154583  0.72698201    -0.00100
Br531      Br  0.15130058  0.29799089  0.87608106     0.00400
Br532      Br  0.03124756  0.41789539  0.82369693    -0.04000
Br533      Br  0.01209211  0.37641162  0.72172955     0.00500
Br534      Br  0.15284319  0.41666537  0.79909116    -0.03300
Br535      Br  0.14800633  0.31559108  0.80274728    -0.04200
Br536      Br  0.01204262  0.37473043  0.88854403    -0.00200
C537        C  0.33541173  0.09661788  0.66004972     0.01200
C538        C  0.30743235  0.10918374  0.64169289     0.04000
C539        C  0.31535627  0.11964087  0.61147404    -0.12000
C540        C  0.35106386  0.11753041  0.59941264     0.23300
C541        C  0.37918786  0.10652160  0.61790813    -0.12600
C542        C  0.37140051  0.09638927  0.64822966     0.04700
C543        C  0.35902080  0.12945147  0.56769510     0.27200
C544        C  0.35560495  0.10518186  0.54497484    -0.13300
C545        C  0.36127890  0.12240485  0.01496413     0.05300
C546        C  0.35985598  0.16038550  0.00771104    -0.09300
C547        C  0.37155775  0.17874480  0.53022570     0.06100
C548        C  0.36922512  0.16564094  0.56025454    -0.13600
Br549      Br  0.42832348  0.10543995  0.60152935    -0.05700
Br550      Br  0.25792381  0.11125329  0.65724694    -0.00100
Br551      Br  0.37565498  0.08863206  0.98525279     0.00400
Br552      Br  0.37700856  0.19804724  0.59159761    -0.04000
Br553      Br  0.41028219  0.08385409  0.67382295     0.00500
Br554      Br  0.27737954  0.13695309  0.58626548    -0.03300
Br555      Br  0.34467197  0.05463567  0.55536029    -0.04200
Br556      Br  0.38669620  0.22871444  0.52135810    -0.00200
C557        C  0.30180973  0.15184272  0.90629586     0.01200
C558        C  0.32760296  0.13557023  0.88694691     0.04000
C559        C  0.31696761  0.12178838  0.86026647    -0.12000
C560        C  0.28066086  0.12478614  0.85245167     0.23300
C561        C  0.25463893  0.13978639  0.87222826    -0.12600
C562        C  0.26508761  0.15233859  0.89950679     0.04700
C563        C  0.27057700  0.11171012  0.82340413     0.27200
C564        C  0.26974581  0.13595725  0.79800415    -0.13300
C565        C  0.26822827  0.12234629  0.76947394     0.05300
C566        C  0.27299825  0.08447632  0.76606265    -0.09300
C567        C  0.26594017  0.06062327  0.79187952     0.06100
C568        C  0.26524914  0.07433895  0.82046962    -0.13600
Br569      Br  0.20501295  0.14400731  0.86148562    -0.05700
Br570      Br  0.37772108  0.13212298  0.89664344    -0.00100
Br571      Br  0.25090141  0.15454647  0.73778752     0.00400
Br572      Br  0.26074571  0.04172822  0.85575329    -0.04000
Br573      Br  0.22890750  0.16791446  0.92833631     0.00500
Br574      Br  0.35236992  0.09941328  0.83389393    -0.03300
Br575      Br  0.27290773  0.18769401  0.80216789    -0.04200
Br576      Br  0.26051966  0.00867997  0.78893933    -0.00200
C577        C  0.12111158  0.13904941  0.61489421     0.01200
C578        C  0.11802494  0.17397668  0.62627908     0.04000
C579        C  0.10361909  0.17796045  0.65561774    -0.12000
C580        C  0.09488432  0.14687113  0.67442123     0.23300
C581        C  0.09887280  0.11199620  0.66332734    -0.12600
C582        C  0.10984558  0.10817402  0.63329844     0.04700
C583        C  0.07683782  0.15000440  0.70451024     0.27200
C584        C  0.09682272  0.15471241  0.72966116    -0.13300
C585        C  0.08006267  0.15019232  0.75853486     0.05300
C586        C  0.04402440  0.13698828  0.76270109    -0.09300
C587        C  0.02270357  0.13845225  0.73685190     0.06100
C588        C  0.03942398  0.14473337  0.70810808    -0.13600
Br589      Br  0.08794933  0.06938636  0.68943073    -0.05700
Br590      Br  0.13039210  0.21660059  0.60091592    -0.00100
Br591      Br  0.10556364  0.16686090  0.79160069     0.00400
Br592      Br  0.01160060  0.14460366  0.67267922    -0.04000
Br593      Br  0.10654345  0.06067360  0.61746194     0.00500
Br594      Br  0.09348950  0.22580600  0.66947689    -0.03300
Br595      Br  0.14754688  0.16590575  0.72443492    -0.04200
Br596      Br  0.47079213  0.13478942  0.73764193    -0.00200
C597        C  0.11431386  0.09005578  0.51328787     0.01200
C598        C  0.10856112  0.11529553  0.98232305     0.04000
C599        C  0.10297160  0.10463511  0.95360472    -0.12000
C600        C  0.10923105  0.06827979  0.94661910     0.23300
C601        C  0.12102920  0.04259385  0.96846781    -0.12600
C602        C  0.12812709  0.05361774  0.99703806     0.04700
C603        C  0.09366867  0.05627602  0.91941002     0.27200
C604        C  0.05643415  0.04997042  0.92037522    -0.13300
C605        C  0.03807120  0.05307701  0.89394215     0.05300
C606        C  0.05740592  0.06305684  0.86629847    -0.09300
C607        C  0.09550760  0.05861134  0.86518532     0.06100
C608        C  0.11367963  0.05732913  0.89201108    -0.13600
Br609      Br  0.12573362  0.99210868  0.95926262    -0.05700
Br610      Br  0.08959478  0.16218002  0.99352643    -0.00100
Br611      Br  0.48587969  0.04794882  0.89753662     0.00400
Br612      Br  0.16558491  0.05806352  0.89168722    -0.04000
Br613      Br  0.12654367  0.01489995  0.53628242     0.00500
Br614      Br  0.08610150  0.13996186  0.92367671    -0.03300
Br615      Br  0.03014416  0.04209606  0.95857393    -0.04200
Br616      Br  0.12240317  0.04647736  0.82928951    -0.00200
C617        C  0.14502767  0.60727409  0.02868421     0.86400
C618        C  0.17579349  0.58478405  0.04215777    -0.53900
C619        C  0.19081302  0.59933831  0.06571222     0.09300
C620        C  0.17640549  0.63817694  0.07149352     0.20200
C621        C  0.11920874  0.61735609  0.05509124    -0.54600
C622        C  0.13548082  0.63224302  0.07830823     0.09400
C623        C  0.16450807  0.64205489  0.01850742    -0.54100
C624        C  0.17957239  0.65968937  0.04023308     0.10000
H625        H  0.18487158  0.55874052  0.03460553     0.14500
H626        H  0.19097936  0.65059668  0.08918344     0.00200
H627        H  0.09038891  0.61253603  0.05518200     0.14800
H628        H  0.16549507  0.65281742  0.99539853     0.14600
C629        C  0.34820900  0.67440970  0.47808016     0.86400
C630        C  0.32812860  0.65194897  0.45594222    -0.53900
C631        C  0.31727653  0.67198294  0.43125462     0.09300
C632        C  0.32544087  0.71290427  0.43136342     0.20200
C633        C  0.37826216  0.69361882  0.45887941    -0.54600
C634        C  0.36719376  0.71337189  0.43419832     0.09400
C635        C  0.32074278  0.70409169  0.48538387    -0.54100
C636        C  0.30794931  0.72420345  0.46178148     0.10000
H637        H  0.32212950  0.62325241  0.45879146     0.14500
H638        H  0.31598376  0.72904997  0.41153440     0.00200
H639        H  0.40654989  0.68957595  0.46353636     0.14800
H640        H  0.30948505  0.70631585  0.50803910     0.14600
C641        C  0.05109932  0.83111879  0.45775038     0.86400
C642        C  0.07012943  0.85273002  0.43090102    -0.53900
C643        C  0.08448227  0.83192027  0.40884133     0.09300
C644        C  0.08123706  0.79059485  0.41730319     0.20200
C645        C  0.02440241  0.80842075  0.44241581    -0.54600
C646        C  0.03916785  0.78666093  0.42135370     0.09400
C647        C  0.07874103  0.80468161  0.46975073    -0.54100
C648        C  0.09690795  0.78484605  0.44941589     0.10000
H649        H  0.06789374  0.88216680  0.42776947     0.14500
H650        H  0.09351997  0.77273010  0.40048826     0.00200
H651        H  0.99559704  0.81362128  0.44470399     0.14800
H652        H  0.08653802  0.80541206  0.49273900     0.14600
O653        O  0.16307115  0.77766816  0.44510385    -0.57900
C654        C  0.27349521  0.74447308  0.46801742     0.74700
O655        O  0.20626522  0.80646211  0.03665522    -0.59100
C656        C  0.13325661  0.77210105  0.45969348     0.74700
C657        C  0.19244021  0.69670328  0.03051429     0.77000
Cd658      Cd  0.20160488  0.76474190  0.49209197     1.37500
O659        O  0.24824174  0.74843408  0.45011495    -0.57900
O660        O  0.19878142  0.69908702  0.50090879    -0.56800
C661        C  0.21023471  0.83488491  0.01951782     0.77000
O662        O  0.17863532  0.72547386  0.04050978    -0.59100
O663        O  0.26436915  0.76048408  0.99116450    -0.60000
O664        O  0.13309800  0.75525020  0.98885666    -0.57600
O665        O  0.21166699  0.83102122  0.48947352    -0.56700
C666        C  0.29036602  0.57583330  0.23709636     0.86400
C667        C  0.30753897  0.60178394  0.21178439    -0.53900
C668        C  0.32508173  0.58420451  0.18924329     0.09300
C669        C  0.32626148  0.54267210  0.19462564     0.20200
C670        C  0.26751344  0.54963641  0.22074873    -0.54600
C671        C  0.28563919  0.53250863  0.19821762     0.09400
C672        C  0.32271537  0.55331178  0.24753820    -0.54100
C673        C  0.34233636  0.53664835  0.22584990     0.10000
H674        H  0.30617443  0.63115957  0.21061111     0.14500
H675        H  0.34137726  0.52862344  0.17661961     0.00200
H676        H  0.23832280  0.54837897  0.22440613     0.14800
H677        H  0.33125425  0.55340384  0.27031202     0.14600
C678        C  0.28211909  0.90490976  0.02288921     0.86400
C679        C  0.26177086  0.93570259  0.03791546    -0.53900
C680        C  0.23474275  0.92503904  0.05830672     0.09300
C681        C  0.22930590  0.88257382  0.06056389     0.20200
C682        C  0.29403515  0.88029817  0.05057226    -0.54600
C683        C  0.26616684  0.86864603  0.07091284     0.09400
C684        C  0.25372290  0.88196211  0.00984038    -0.54100
C685        C  0.22685343  0.86911849  0.02863859     0.10000
H686        H  0.27175322  0.96350303  0.03574585     0.14500
H687        H  0.20503406  0.87308865  0.07359548     0.00200
H688        H  0.32170975  0.87507006  0.05555567     0.14800
H689        H  0.25779094  0.87226897  0.98747074     0.14600
C690        C  0.37250577  0.85171807  0.26860794     0.86400
C691        C  0.39496870  0.81994158  0.28191182    -0.53900
C692        C  0.41749988  0.82948691  0.30337978     0.09300
C693        C  0.41727992  0.87108559  0.30817792     0.20200
C694        C  0.35417448  0.86930061  0.29603566    -0.54600
C695        C  0.37747287  0.87900449  0.31680502     0.09400
C696        C  0.40232804  0.87765114  0.25629091    -0.54100
C697        C  0.42404149  0.89034800  0.27667535     0.10000
H698        H  0.39388315  0.79223227  0.27533584     0.14500
H699        H  0.43621444  0.87917232  0.32493692     0.00200
H700        H  0.32507354  0.87211873  0.29933281     0.14800
H701        H  0.40372835  0.88808111  0.23311756     0.14600
O702        O  0.48449848  0.01354650  0.20119559    -0.57900
C703        C  0.37931939  0.52312907  0.23248593     0.74700
O704        O  0.44933402  0.94846258  0.28811983    -0.59100
C705        C  0.01430854  0.99908775  0.20826061     0.74700
C706        C  0.47449305  0.55684080  0.28859963     0.77000
Cd707      Cd  0.45251945  0.00293715  0.24966938     1.37500
O708        O  0.40303712  0.51509259  0.21267649    -0.57900
O709        O  0.46888939  0.56640826  0.26170308    -0.56800
C710        C  0.43969424  0.92708068  0.26905674     0.77000
O711        O  0.46718806  0.52413940  0.29712146    -0.59100
O712        O  0.38951483  0.52124237  0.25897696    -0.57600
O713        O  0.01716717  0.98926231  0.23546798    -0.57600
O714        O  0.44003990  0.94023043  0.24239847    -0.56700
C715        C  0.05437931  0.94667715  0.14610992     0.86400
C716        C  0.06563275  0.92026081  0.17237607    -0.53900
C717        C  0.07954495  0.93675083  0.19585901     0.09300
C718        C  0.08145050  0.97846622  0.19030589     0.20200
C719        C  0.02815142  0.97228532  0.16177206    -0.54600
C720        C  0.04151481  0.98903513  0.18495578     0.09400
C721        C  0.08759171  0.96893393  0.13698005    -0.54100
C722        C  0.10292492  0.98475977  0.15955262     0.10000
H723        H  0.06097525  0.89117707  0.17306396     0.14500
H724        H  0.09229283  0.99319354  0.20865629     0.00200
H725        H  0.99928909  0.97134936  0.15863295     0.14800
H726        H  0.10028734  0.96894005  0.11459873     0.14600
O727        O  0.16579619  0.96974190  0.15411129    -0.57900
C728        C  0.26436346  0.51864196  0.17407416     0.74700
O729        O  0.25159244  0.96694798  0.09464434    -0.59100
C730        C  0.14142631  0.99427556  0.15374928     0.74700
C731        C  0.20449590  0.57246640  0.08831041     0.77000
Cd732      Cd  0.21362309  0.00728183  0.12707684     1.37500
O733        O  0.23302089  0.50591306  0.17943747    -0.57900
O734        O  0.19539827  0.57301622  0.11573930    -0.56800
C735        C  0.22662051  0.94996404  0.08321113     0.77000
O736        O  0.22124703  0.54433981  0.08031624    -0.59100
O737        O  0.27447263  0.52255581  0.14679555    -0.57600
O738        O  0.15079384  0.02540232  0.14262722    -0.57600
O739        O  0.19504359  0.95684581  0.09345995    -0.56700
C740        C  0.03843724  0.58857054  0.34440493     0.86400
C741        C  0.51248370  0.56395418  0.33012731    -0.53900
C742        C  0.49250964  0.58048439  0.30862977     0.09300
C743        C  0.50075400  0.62164814  0.30272311     0.20200
C744        C  0.06162024  0.60588640  0.31750387    -0.54600
C745        C  0.04183933  0.62138889  0.29488847     0.09400
C746        C  0.51613264  0.62079137  0.35473625    -0.54100
C747        C  0.49663662  0.63875304  0.33374252     0.10000
H748        H  0.51231011  0.53464605  0.33521921     0.14500
H749        H  0.48439474  0.63516979  0.28519165     0.00200
H750        H  0.09079380  0.60538420  0.31497372     0.14800
H751        H  0.51743917  0.62994036  0.37722907     0.14600
O752        O  0.42796763  0.72559616  0.41615592    -0.57900
C753        C  0.01370406  0.77074605  0.40086326     0.74700
O754        O  0.47592064  0.70140743  0.32462801    -0.59100
C755        C  0.39495760  0.72591086  0.41059788     0.74700
C756        C  0.43323881  0.80094296  0.32381452     0.77000
Cd757      Cd  0.45552596  0.74291870  0.36655715     1.37500
O758        O  0.48008447  0.77476051  0.40586535    -0.57900
O759        O  0.45291348  0.80812296  0.34483962    -0.56800
C760        C  0.47915834  0.67358865  0.34222457     0.77000
O761        O  0.42549989  0.76770341  0.32219398    -0.59100
O762        O  0.52283833  0.75381139  0.37785592    -0.57600
O763        O  0.38820711  0.73502221  0.38383974    -0.57600
O764        O  0.47003403  0.67798916  0.36925052    -0.56700
C765        C  0.34585890  0.84549299  0.24398979     0.01200
C766        C  0.33510938  0.87610609  0.22549519     0.04000
C767        C  0.32267644  0.87123259  0.19708835    -0.12000
C768        C  0.31450797  0.83607535  0.18865581     0.23300
C769        C  0.31736830  0.80620758  0.20964062    -0.12600
C770        C  0.33291061  0.81078959  0.23732202     0.04700
C771        C  0.29719033  0.83274453  0.15972250     0.27200
C772        C  0.26236397  0.84707808  0.15665050    -0.13300
C773        C  0.25011270  0.85712739  0.12809548     0.05300
C774        C  0.27230328  0.85030057  0.10172790    -0.09300
C775        C  0.30312870  0.82747481  0.10578372     0.06100
C776        C  0.31657184  0.82058008  0.13447377    -0.13600
Br777      Br  0.29782559  0.75973647  0.20103421    -0.05700
Br778      Br  0.33558467  0.92527417  0.23900648    -0.00100
Br779      Br  0.20343313  0.88076269  0.12890702     0.00400
Br780      Br  0.36203941  0.79555402  0.13920925    -0.04000
Br781      Br  0.32749479  0.77197632  0.26794280     0.00500
Br782      Br  0.31680152  0.91329365  0.16959235    -0.03300
Br783      Br  0.23292820  0.85553862  0.19266594    -0.04200
Br784      Br  0.32526881  0.80244514  0.07286910    -0.00200
C785        C  0.36559472  0.89046214  0.34711375     0.01200
C786        C  0.36891952  0.92703544  0.35435596     0.04000
C787        C  0.36261507  0.93685917  0.38404971    -0.12000
C788        C  0.35016547  0.91069928  0.40639477     0.23300
C789        C  0.34521725  0.87439092  0.39891408    -0.12600
C790        C  0.35335601  0.86420909  0.36953625     0.04700
C791        C  0.33785515  0.92187338  0.43672209     0.27200
C792        C  0.35869159  0.91417061  0.46175327    -0.13300
C793        C  0.34335565  0.91790794  0.49097344     0.05300
C794        C  0.30623865  0.92728420  0.49515264    -0.09300
C795        C  0.28911358  0.94354465  0.46971791     0.06100
C796        C  0.30398645  0.93887089  0.44074883    -0.13600
Br797      Br  0.32632465  0.83871266  0.42890448    -0.05700
Br798      Br  0.37830610  0.96440369  0.32320012    -0.00100
Br799      Br  0.37628062  0.90111958  0.02349977     0.00400
Br800      Br  0.27604700  0.95215311  0.40647193    -0.04000
Br801      Br  0.34663951  0.81434021  0.36000293     0.00500
Br802      Br  0.37078908  0.98627211  0.39419407    -0.03300
Br803      Br  0.40796390  0.89771472  0.45570235    -0.04200
Br804      Br  0.24267706  0.96802840  0.47328703    -0.00200
C805        C  0.03580712  0.85339539  0.48325848     0.01200
C806        C  0.05679719  0.88257923  0.49254128     0.04000
C807        C  0.04079287  0.90119652  0.01724087    -0.12000
C808        C  0.01318320  0.88770268  0.03725449     0.23300
C809        C  0.99339408  0.85723654  0.03094219    -0.12600
C810        C  0.00394793  0.83732567  0.00616727     0.04700
C811        C  0.01481392  0.89771962  0.06833694     0.27200
C812        C  0.04056298  0.87929621  0.08569127    -0.13300
C813        C  0.05486159  0.89607703  0.10953397     0.05300
C814        C  0.03969004  0.92932040  0.11914053    -0.09300
C815        C  0.01458132  0.94830412  0.10046737     0.06100
C816        C  0.00065227  0.93129035  0.07642812    -0.13600
Br817      Br  0.45502530  0.84048097  0.05911302    -0.05700
Br818      Br  0.10654672  0.89122926  0.47803854    -0.00100
Br819      Br  0.10097474  0.87744153  0.12258179     0.00400
Br820      Br  0.96540200  0.95559536  0.05174023    -0.04000
Br821      Br  0.98582677  0.79213206  0.50218224     0.00500
Br822      Br  0.06631796  0.94477991  0.02570842    -0.03300
Br823      Br  0.05961267  0.83250126  0.07438798    -0.04200
Br824      Br  0.00581369  0.00037316  0.10113883    -0.00200
C825        C  0.08579796  0.91733096  0.22560321     0.01200
C826        C  0.11607197  0.92580971  0.24200939     0.04000
C827        C  0.11892978  0.91155128  0.27164561    -0.12000
C828        C  0.09412335  0.88541842  0.28403358     0.23300
C829        C  0.06620372  0.87395517  0.26678169    -0.12600
C830        C  0.06025808  0.89177056  0.23885331     0.04700
C831        C  0.09393601  0.87346377  0.31629465     0.27200
C832        C  0.11946216  0.84815021  0.32743697    -0.13300
C833        C  0.11783367  0.83654844  0.35802363     0.05300
C834        C  0.08837426  0.84705635  0.37702165    -0.09300
C835        C  0.06152445  0.87085897  0.36490033     0.06100
C836        C  0.06615844  0.88614186  0.33558388    -0.13600
Br837      Br  0.03490554  0.83469822  0.28236440    -0.05700
Br838      Br  0.15485044  0.95587537  0.22453998    -0.00100
Br839      Br  0.15671628  0.80713462  0.37359857     0.00400
Br840      Br  0.03384299  0.92443822  0.32146423    -0.04000
Br841      Br  0.01401214  0.88430652  0.22212436     0.00500
Br842      Br  0.15570309  0.92931347  0.29594745    -0.03300
Br843      Br  0.15582574  0.82848312  0.30050711    -0.04200
Br844      Br  0.01541370  0.87960075  0.38567049    -0.00200
C845        C  0.33486414  0.60195145  0.15951030     0.01200
C846        C  0.30722872  0.61379876  0.14057520     0.04000
C847        C  0.31580918  0.62393557  0.11045048    -0.12000
C848        C  0.35189817  0.62255495  0.09919691     0.23300
C849        C  0.37967964  0.61248209  0.11828720    -0.12600
C850        C  0.37118067  0.60250013  0.14850923     0.04700
C851        C  0.36039792  0.63437597  0.06767035     0.27200
C852        C  0.35927704  0.60952590  0.04513427    -0.13300
C853        C  0.35918651  0.61801258  0.51478189     0.05300
C854        C  0.36151699  0.65603966  0.50740389    -0.09300
C855        C  0.36904267  0.68405440  0.03005543     0.06100
C856        C  0.36800732  0.67118217  0.06008385    -0.13600
Br857      Br  0.42922202  0.61239684  0.10281470    -0.05700
Br858      Br  0.25738979  0.61573584  0.15532788    -0.00100
Br859      Br  0.37009657  0.58276484  0.48544305     0.00400
Br860      Br  0.37410155  0.70438588  0.09112784    -0.04000
Br861      Br  0.40941411  0.59155666  0.17511303     0.00500
Br862      Br  0.27816236  0.63960037  0.08426109    -0.03300
Br863      Br  0.35375021  0.55818336  0.05564723    -0.04200
Br864      Br  0.38217777  0.73442130  0.02033362    -0.00200
C865        C  0.30431299  0.65524268  0.40459668     0.01200
C866        C  0.32959735  0.64004185  0.38421341     0.04000
C867        C  0.31831408  0.62836215  0.35701076    -0.12000
C868        C  0.28166135  0.63125490  0.35024248     0.23300
C869        C  0.25611362  0.64485141  0.37108300    -0.12600
C870        C  0.26740919  0.65659162  0.39834522     0.04700
C871        C  0.27050309  0.61903854  0.32131623     0.27200
C872        C  0.27048847  0.64351120  0.29605297    -0.13300
C873        C  0.26776064  0.63023802  0.26754738     0.05300
C874        C  0.27030204  0.59218849  0.26417472    -0.09300
C875        C  0.26165334  0.56875192  0.28988887     0.06100
C876        C  0.26254229  0.58219914  0.31845852    -0.13600
Br877      Br  0.20581957  0.64748443  0.36198929    -0.05700
Br878      Br  0.37977328  0.63476192  0.39341374    -0.00100
Br879      Br  0.25142389  0.66339321  0.23604409     0.00400
Br880      Br  0.25618173  0.54981502  0.35372954    -0.04000
Br881      Br  0.23208916  0.67260302  0.42764828     0.00500
Br882      Br  0.35317420  0.60881783  0.32861013    -0.03300
Br883      Br  0.27578982  0.69489473  0.30055098    -0.04200
Br884      Br  0.25179006  0.51762793  0.28677183    -0.00200
C885        C  0.11713808  0.63687649  0.10879283     0.01200
C886        C  0.12690924  0.66587216  0.12625052     0.04000
C887        C  0.11681048  0.66530361  0.15700722    -0.12000
C888        C  0.09114805  0.64006374  0.16953667     0.23300
C889        C  0.07687180  0.61468884  0.15111923    -0.12600
C890        C  0.09223130  0.61062614  0.12212999     0.04700
C891        C  0.08124866  0.63759311  0.20235265     0.27200
C892        C  0.09146436  0.60636218  0.21978589    -0.13300
C893        C  0.07737531  0.60028127  0.24932364     0.05300
C894        C  0.05724525  0.62801117  0.26348321    -0.09300
C895        C  0.04978230  0.66077462  0.24669182     0.06100
C896        C  0.06011344  0.66477105  0.21595258    -0.13600
Br897      Br  0.03667463  0.58465872  0.16616848    -0.05700
Br898      Br  0.15131053  0.70847852  0.10847279    -0.00100
Br899      Br  0.08246307  0.55191732  0.26819517     0.00400
Br900      Br  0.04409197  0.70690358  0.19233718    -0.04000
Br901      Br  0.08211010  0.56574669  0.10399468     0.00500
Br902      Br  0.14018550  0.69750124  0.18229429    -0.03300
Br903      Br  0.12520248  0.57172945  0.20311594    -0.04200
Br904      Br  0.52651824  0.70096058  0.26572142    -0.00200
C905        C  0.12595391  0.59118612  0.00299924     0.01200
C906        C  0.09115894  0.61347163  0.49654229     0.04000
C907        C  0.08096650  0.60369567  0.46865948    -0.12000
C908        C  0.09013836  0.56898623  0.45901775     0.23300
C909        C  0.10595705  0.54287978  0.47843406    -0.12600
C910        C  0.11687421  0.55297686  0.50625204     0.04700
C911        C  0.07977916  0.55971409  0.42935416     0.27200
C912        C  0.04344666  0.55278875  0.42517078    -0.13300
C913        C  0.03042648  0.55779008  0.39655254     0.05300
C914        C  0.05462392  0.56864259  0.37172489    -0.09300
C915        C  0.09229853  0.56519963  0.37571593     0.06100
C916        C  0.10468658  0.56341028  0.40479528    -0.13600
Br917      Br  0.11250241  0.49370559  0.46643609    -0.05700
Br918      Br  0.07352706  0.65935888  0.51099190    -0.00100
Br919      Br  0.47848317  0.55397577  0.39353368     0.00400
Br920      Br  0.15544786  0.56841594  0.41125278    -0.04000
Br921      Br  0.13086265  0.51607154  0.02891996     0.00500
Br922      Br  0.05605021  0.63869894  0.44295842    -0.03300
Br923      Br  0.01098376  0.54143057  0.45955482    -0.04200
Br924      Br  0.12709542  0.55616041  0.34363222    -0.00200
C925        C  0.13807307  0.60686443  0.53557883     0.86400
C926        C  0.17113811  0.58537515  0.54649747    -0.53900
C927        C  0.18932179  0.60110157  0.56797000     0.09300
C928        C  0.17548855  0.64059322  0.57327698     0.20200
C929        C  0.11626918  0.61751641  0.56369460    -0.54600
C930        C  0.13559827  0.63445444  0.58376182     0.09400
C931        C  0.15550044  0.64155899  0.52228617    -0.54100
C932        C  0.17435861  0.66043374  0.54120360     0.10000
H933        H  0.17926986  0.55893504  0.53929467     0.14500
H934        H  0.19147459  0.65495804  0.58911507     0.00200
H935        H  0.08799623  0.61045996  0.56799950     0.14800
H936        H  0.15244293  0.65099825  0.49913948     0.14600
C937        C  0.34508141  0.67696574  0.97855078     0.86400
C938        C  0.32554883  0.65249494  0.95755823    -0.53900
C939        C  0.31402733  0.67072108  0.93225544     0.09300
C940        C  0.32116606  0.71202334  0.93073679     0.20200
C941        C  0.37440271  0.69593123  0.95877937    -0.54600
C942        C  0.36290286  0.71379041  0.93350250     0.09400
C943        C  0.31687038  0.70629345  0.98497761    -0.54100
C944        C  0.30361141  0.72480937  0.96074035     0.10000
H945        H  0.32069152  0.62365783  0.96165840     0.14500
H946        H  0.31132985  0.72676572  0.91039065     0.00200
H947        H  0.40276344  0.69289187  0.96357825     0.14800
H948        H  0.30580033  0.70974319  0.00752651     0.14600
C949        C  0.04753096  0.82690015  0.96064829     0.86400
C950        C  0.06691630  0.84756905  0.93346531    -0.53900
C951        C  0.08076443  0.82600346  0.91177012     0.09300
C952        C  0.07672021  0.78504575  0.92081516     0.20200
C953        C  0.02023312  0.80430237  0.94562918    -0.54600
C954        C  0.03466839  0.78211198  0.92470545     0.09400
C955        C  0.07474941  0.80012645  0.97299529    -0.54100
C956        C  0.09239458  0.77957679  0.95285549     0.10000
H957        H  0.06486775  0.87693111  0.92963541     0.14500
H958        H  0.08851860  0.76645848  0.90435123     0.00200
H959        H  0.99141371  0.80956027  0.94821514     0.14800
H960        H  0.08306673  0.80142785  0.99579896     0.14600
O961        O  0.15855543  0.77676997  0.94793884    -0.57900
C962        C  0.26944357  0.74573532  0.96656689     0.74700
O963        O  0.20670486  0.80861712  0.53453419    -0.59100
C964        C  0.12933928  0.76808962  0.96240105     0.74700
C965        C  0.18876717  0.69616356  0.52830728     0.77000
Cd966      Cd  0.19861802  0.76456305  0.99362674     1.37500
O967        O  0.24208043  0.74478083  0.95083173    -0.57900
O968        O  0.21130536  0.70080169  0.00634503    -0.56800
C969        C  0.21381910  0.83612418  0.51695022     0.77000
O970        O  0.18684220  0.72578020  0.54137019    -0.59100
O971        O  0.26607634  0.75432376  0.49410281    -0.60000
O972        O  0.13608043  0.76091514  0.48670107    -0.57600
O973        O  0.20479392  0.83105525  0.99228747    -0.56700
C974        C  0.29273951  0.56905324  0.73833375     0.86400
C975        C  0.30889688  0.59560480  0.71289135    -0.53900
C976        C  0.32626117  0.57855661  0.68988607     0.09300
C977        C  0.32823873  0.53702606  0.69496949     0.20200
C978        C  0.27001406  0.54251352  0.72217099    -0.54600
C979        C  0.28787769  0.52627100  0.69898086     0.09400
C980        C  0.32574125  0.54719257  0.74795799    -0.54100
C981        C  0.34491495  0.53079276  0.72592118     0.10000
H982        H  0.30714938  0.62488726  0.71207504     0.14500
H983        H  0.34321176  0.52332912  0.67669423     0.00200
H984        H  0.24090994  0.54078224  0.72626649     0.14800
H985        H  0.33476429  0.54712924  0.77060327     0.14600
C986        C  0.28117283  0.91132353  0.52158260     0.86400
C987        C  0.25841200  0.94004874  0.53712262    -0.53900
C988        C  0.23230566  0.92688221  0.55729749     0.09300
C989        C  0.23027894  0.88404008  0.55874560     0.20200
C990        C  0.29491383  0.88698032  0.54870143    -0.54600
C991        C  0.26797426  0.87272446  0.56874533     0.09400
C992        C  0.25472269  0.88657782  0.50788680    -0.54100
C993        C  0.22896760  0.87105082  0.52653906     0.10000
H994        H  0.26658831  0.96846511  0.53586816     0.14500
H995        H  0.20684536  0.87230610  0.57165381     0.00200
H996        H  0.32289876  0.88325405  0.55327789     0.14800
H997        H  0.25942043  0.87811978  0.48520545     0.14600
C998        C  0.37316963  0.84607684  0.76737770     0.86400
C999        C  0.39516375  0.81379817  0.78059890    -0.53900
C1000       C  0.41795203  0.82304547  0.80205056     0.09300
C1001       C  0.41806313  0.86444426  0.80718425     0.20200
C1002       C  0.35497979  0.86343038  0.79496185    -0.54600
C1003       C  0.37834054  0.87263986  0.81582919     0.09400
C1004       C  0.40334165  0.87177317  0.75536026    -0.54100
C1005       C  0.42515501  0.88382438  0.77591131     0.10000
H1006       H  0.39342037  0.78604018  0.77423007     0.14500
H1007       H  0.43705214  0.87216432  0.82403015     0.00200
H1008       H  0.32589372  0.86632848  0.79832838     0.14800
H1009       H  0.40484328  0.88265479  0.73229896     0.14600
O1010       O  0.48713141  0.00678177  0.70295253    -0.57900
C1011       C  0.38151736  0.51636902  0.73243943     0.74700
O1012       O  0.45103019  0.94108631  0.78828990    -0.59100
C1013       C  0.01673758  0.99223244  0.71045118     0.74700
C1014       C  0.46970417  0.55099624  0.79088016     0.77000
Cd1015     Cd  0.45385485  0.99598590  0.75070622     1.37500
O1016       O  0.40556647  0.50905447  0.71267143    -0.57900
O1017       O  0.46967875  0.55857895  0.76311378    -0.56800
C1018       C  0.44120056  0.92032779  0.76883708     0.77000
O1019       O  0.46074025  0.51879579  0.79971375    -0.59100
O1020       O  0.39103639  0.51305415  0.75906194    -0.57600
O1021       O  0.01917602  0.98288047  0.73783492    -0.57600
O1022       O  0.44160612  0.93397442  0.74233851    -0.56700
C1023       C  0.05632904  0.93966365  0.64796630     0.86400
C1024       C  0.06603588  0.91215128  0.67389256    -0.53900
C1025       C  0.07982125  0.92751383  0.69795378     0.09300
C1026       C  0.08346335  0.96929289  0.69322600     0.20200
C1027       C  0.03069584  0.96584385  0.66368765    -0.54600
C1028       C  0.04409225  0.98154563  0.68739613     0.09400
C1029       C  0.09047621  0.96066871  0.63980952    -0.54100
C1030       C  0.10591638  0.97528548  0.66290781     0.10000
H1031       H  0.06057556  0.88326189  0.67387393     0.14500
H1032       H  0.09456518  0.98292360  0.71206736     0.00200
H1033       H  0.00194147  0.96616041  0.65994941     0.14800
H1034       H  0.10329627  0.96128007  0.61744557     0.14600
O1035       O  0.16614890  0.96350980  0.64519646    -0.57900
C1036       C  0.26617267  0.51413681  0.67444926     0.74700
O1037       O  0.24708531  0.95515460  0.60259073    -0.59100
C1038       C  0.14435058  0.98557598  0.65731209     0.74700
C1039       C  0.20381874  0.57416764  0.59061457     0.77000
Cd1040     Cd  0.21389049  0.00638766  0.62824877     1.37500
O1041       O  0.23501844  0.50100277  0.67980479    -0.57900
O1042       O  0.19214323  0.57195759  0.61756845    -0.56800
C1043       C  0.22420729  0.95044244  0.58303521     0.77000
O1044       O  0.22348902  0.54787001  0.58265612    -0.59100
O1045       O  0.27557568  0.52011691  0.64711693    -0.57600
O1046       O  0.15581830  0.01757280  0.65920596    -0.57600
O1047       O  0.19596214  0.96988629  0.58498604    -0.56700
C1048       C  0.03639712  0.58339800  0.84166044     0.86400
C1049       C  0.50767167  0.55922226  0.83095086    -0.53900
C1050       C  0.48471879  0.57573132  0.81178143     0.09300
C1051       C  0.49193397  0.61743813  0.80598406     0.20200
C1052       C  0.05457613  0.60059635  0.81204905    -0.54600
C1053       C  0.03135420  0.61920937  0.79299100     0.09400
C1054       C  0.51660352  0.61569578  0.85493375    -0.54100
C1055       C  0.49357607  0.63367905  0.83683938     0.10000
H1056       H  0.50906508  0.52976821  0.83509944     0.14500
H1057       H  0.47103927  0.63214491  0.79369547     0.00200
H1058       H  0.08273635  0.59818047  0.80610242     0.14800
H1059       H  0.52201477  0.62481636  0.87682651     0.14600
O1060       O  0.42344888  0.72672811  0.91642854    -0.57900
C1061       C  0.00965282  0.76721999  0.90336432     0.74700
O1062       O  0.47014801  0.69481116  0.82765558    -0.59100
C1063       C  0.39090018  0.72498152  0.90989583     0.74700
C1064       C  0.43342312  0.79479131  0.82274088     0.77000
Cd1065     Cd  0.45321278  0.73885204  0.86773288     1.37500
O1066       O  0.47623005  0.77435029  0.90596198    -0.57900
O1067       O  0.45316018  0.80243656  0.84360575    -0.56800
C1068       C  0.47756605  0.66872092  0.84597719     0.77000
O1069       O  0.42513461  0.76162597  0.82180692    -0.59100
O1070       O  0.51930180  0.74777212  0.88190985    -0.57600
O1071       O  0.38519951  0.73040326  0.88250530    -0.57600
O1072       O  0.47298127  0.67496302  0.87324606    -0.56700
C1073       C  0.34663088  0.84127563  0.74242338     0.01200
C1074       C  0.33624292  0.87298665  0.72502627     0.04000
C1075       C  0.32541794  0.87008311  0.69587618    -0.12000
C1076       C  0.31790135  0.83568654  0.68558356     0.23300
C1077       C  0.32031896  0.80446487  0.70525513    -0.12600
C1078       C  0.33452265  0.80712822  0.73372093     0.04700
C1079       C  0.30096417  0.83445151  0.65631920     0.27200
C1080       C  0.26590649  0.84849873  0.65381732    -0.13300
C1081       C  0.25297721  0.85876228  0.62557308     0.05300
C1082       C  0.27522541  0.85362262  0.59894089    -0.09300
C1083       C  0.30695854  0.83191699  0.60212617     0.06100
C1084       C  0.32059143  0.82394472  0.63060361    -0.13600
Br1085     Br  0.30223176  0.75862812  0.69364012    -0.05700
Br1086     Br  0.33598879  0.92104654  0.74073793    -0.00100
Br1087     Br  0.20499986  0.87981893  0.62702349     0.00400
Br1088     Br  0.36665948  0.79975241  0.63442834    -0.04000
Br1089     Br  0.32795221  0.76642289  0.76252020     0.00500
Br1090     Br  0.32088237  0.91375619  0.66990049    -0.03300
Br1091     Br  0.23681823  0.85613990  0.69018918    -0.04200
Br1092     Br  0.33025237  0.80983545  0.56814291    -0.00200
C1093       C  0.36651532  0.88327286  0.84636873     0.01200
C1094       C  0.36985576  0.91955859  0.85429523     0.04000
C1095       C  0.36350486  0.92852685  0.88422043    -0.12000
C1096       C  0.35108442  0.90175457  0.90613944     0.23300
C1097       C  0.34600839  0.86577228  0.89788138    -0.12600
C1098       C  0.35415860  0.85647488  0.86827682     0.04700
C1099       C  0.33886961  0.91202881  0.93680831     0.27200
C1100       C  0.35930139  0.90269039  0.96180543    -0.13300
C1101       C  0.34423714  0.90640887  0.99117393     0.05300
C1102       C  0.30772727  0.91813523  0.99566754    -0.09300
C1103       C  0.29102145  0.93494200  0.97013494     0.06100
C1104       C  0.30547958  0.92981983  0.94108754    -0.13600
Br1105     Br  0.32661883  0.82936347  0.92701784    -0.05700
Br1106     Br  0.37932439  0.95764995  0.82370997    -0.00100
Br1107     Br  0.37534881  0.91737934  0.52337860     0.00400
Br1108     Br  0.27737917  0.94348211  0.90693583    -0.04000
Br1109     Br  0.34706315  0.80710158  0.85765909     0.00500
Br1110     Br  0.37139498  0.97766503  0.89517463    -0.03300
Br1111     Br  0.40768123  0.88372302  0.95542311    -0.04200
Br1112     Br  0.24530011  0.96088222  0.97356344    -0.00200
C1113       C  0.03265837  0.85021043  0.98567686     0.01200
C1114       C  0.05275191  0.88093355  0.99331296     0.04000
C1115       C  0.04530868  0.90124760  0.51748536    -0.12000
C1116       C  0.01633452  0.88815292  0.53618487     0.23300
C1117       C  0.99528892  0.85956105  0.52796775    -0.12600
C1118       C  0.00603036  0.84055890  0.50274005     0.04700
C1119       C  0.01725580  0.89599791  0.56783377     0.27200
C1120       C  0.04242059  0.87607326  0.58481351    -0.13300
C1121       C  0.05631894  0.89090008  0.60975361     0.05300
C1122       C  0.04175125  0.92395736  0.62027472    -0.09300
C1123       C  0.01794858  0.94477735  0.60164159     0.06100
C1124       C  0.00377864  0.92940295  0.57696029    -0.13600
Br1125     Br  0.45475704  0.84374881  0.55426081    -0.05700
Br1126     Br  0.10228610  0.89009365  0.97857845    -0.00100
Br1127     Br  0.10137155  0.87012440  0.62333019     0.00400
Br1128     Br  0.96970846  0.95610188  0.55265042    -0.04000
Br1129     Br  0.98490094  0.78830855  0.00691312     0.00500
Br1130     Br  0.07327480  0.94124490  0.52955315    -0.03300
Br1131     Br  0.06176408  0.83039440  0.57118593    -0.04200
Br1132     Br  0.01233354  0.99724083  0.60305453    -0.00200
C1133       C  0.08448247  0.90724759  0.72750767     0.01200
C1134       C  0.11474706  0.91418125  0.74434612     0.04000
C1135       C  0.11604925  0.90024544  0.77415162    -0.12000
C1136       C  0.08948093  0.87583732  0.78634194     0.23300
C1137       C  0.06116315  0.86592519  0.76882028    -0.12600
C1138       C  0.05730484  0.88315370  0.74033022     0.04700
C1139       C  0.08866982  0.86388726  0.81854162     0.27200
C1140       C  0.11345220  0.83785801  0.82975248    -0.13300
C1141       C  0.11255755  0.82767546  0.86054271     0.05300
C1142       C  0.08409787  0.83997981  0.87972044    -0.09300
C1143       C  0.05753383  0.86405891  0.86750307     0.06100
C1144       C  0.06195809  0.87828282  0.83789927    -0.13600
Br1145     Br  0.02633682  0.83001803  0.78483436    -0.05700
Br1146     Br  0.15557983  0.94153864  0.72698561    -0.00100
Br1147     Br  0.15129482  0.79797993  0.87607931     0.00400
Br1148     Br  0.03122928  0.91786634  0.82368990    -0.04000
Br1149     Br  0.01208485  0.87641975  0.72172296     0.00500
Br1150     Br  0.15283739  0.91664399  0.79909196    -0.03300
Br1151     Br  0.14800630  0.81557940  0.80274482    -0.04200
Br1152     Br  0.01201919  0.87468641  0.88853089    -0.00200
C1153       C  0.33540757  0.59661999  0.66005704     0.01200
C1154       C  0.30742911  0.60918175  0.64169790     0.04000
C1155       C  0.31535516  0.61963723  0.61147915    -0.12000
C1156       C  0.35106434  0.61753082  0.59942060     0.23300
C1157       C  0.37918734  0.60652637  0.61791858    -0.12600
C1158       C  0.37139755  0.59639455  0.64823982     0.04700
C1159       C  0.35902383  0.62945508  0.56770417     0.27200
C1160       C  0.35561733  0.60518615  0.54498214    -0.13300
C1161       C  0.36125774  0.62238015  0.01497921     0.05300
C1162       C  0.35984367  0.66036124  0.00772399    -0.09300
C1163       C  0.37155491  0.67875355  0.53023823     0.06100
C1164       C  0.36921979  0.66564752  0.56026645    -0.13600
Br1165     Br  0.42832487  0.60545057  0.60154382    -0.05700
Br1166     Br  0.25791945  0.61125001  0.65724945    -0.00100
Br1167     Br  0.37561582  0.58859943  0.98526919     0.00400
Br1168     Br  0.37698702  0.69805447  0.59161233    -0.04000
Br1169     Br  0.41027706  0.58386542  0.67383687     0.00500
Br1170     Br  0.27737935  0.63694222  0.58626693    -0.03300
Br1171     Br  0.34469832  0.55463613  0.55536445    -0.04200
Br1172     Br  0.38668836  0.72872507  0.52137381    -0.00200
C1173       C  0.30180296  0.65183725  0.90630386     0.01200
C1174       C  0.32759601  0.63556418  0.88695506     0.04000
C1175       C  0.31696113  0.62178535  0.86027333    -0.12000
C1176       C  0.28065511  0.62478645  0.85245720     0.23300
C1177       C  0.25463347  0.63978854  0.87223306    -0.12600
C1178       C  0.26508145  0.65233739  0.89951298     0.04700
C1179       C  0.27057162  0.61171223  0.82340895     0.27200
C1180       C  0.26974505  0.63595994  0.79800911    -0.13300
C1181       C  0.26822487  0.62234990  0.76947885     0.05300
C1182       C  0.27298940  0.58447942  0.76606711    -0.09300
C1183       C  0.26592775  0.56062685  0.79188362     0.06100
C1184       C  0.26523854  0.57434192  0.82047395    -0.13600
Br1185     Br  0.20500922  0.64401771  0.86148708    -0.05700
Br1186     Br  0.37771317  0.63211151  0.89665370    -0.00100
Br1187     Br  0.25090047  0.65455314  0.73779335     0.00400
Br1188     Br  0.26073068  0.54173095  0.85575721    -0.04000
Br1189     Br  0.22890102  0.66791456  0.92834172     0.00500
Br1190     Br  0.35236324  0.59941038  0.83390054    -0.03300
Br1191     Br  0.27291795  0.68769580  0.80217300    -0.04200
Br1192     Br  0.26049873  0.50868487  0.78894234    -0.00200
C1193       C  0.12110983  0.63904514  0.61489463     0.01200
C1194       C  0.11802482  0.67397210  0.62628044     0.04000
C1195       C  0.10361931  0.67795543  0.65561925    -0.12000
C1196       C  0.09488240  0.64686597  0.67442181     0.23300
C1197       C  0.09887011  0.61199135  0.66332742    -0.12600
C1198       C  0.10984363  0.60816948  0.63329863     0.04700
C1199       C  0.07683673  0.64999933  0.70451111     0.27200
C1200       C  0.09682254  0.65470670  0.72966158    -0.13300
C1201       C  0.08006194  0.65019254  0.75853535     0.05300
C1202       C  0.04402334  0.63698998  0.76270288    -0.09300
C1203       C  0.02270225  0.63845213  0.73685370     0.06100
C1204       C  0.03942253  0.64473125  0.70810951    -0.13600
Br1205     Br  0.08794625  0.56938149  0.68943044    -0.05700
Br1206     Br  0.13039479  0.71659659  0.60091892    -0.00100
Br1207     Br  0.10556208  0.66686933  0.79159852     0.00400
Br1208     Br  0.01159827  0.64460339  0.67268103    -0.04000
Br1209     Br  0.10654441  0.56066837  0.61746277     0.00500
Br1210     Br  0.09349450  0.72580090  0.66948051    -0.03300
Br1211     Br  0.14754903  0.66588927  0.72443492    -0.04200
Br1212     Br  0.47078346  0.63479969  0.73763807    -0.00200
C1213       C  0.11430922  0.59004632  0.51329080     0.01200
C1214       C  0.10854187  0.61529686  0.98233754     0.04000
C1215       C  0.10294799  0.60463726  0.95361972    -0.12000
C1216       C  0.10921279  0.56828349  0.94663142     0.23300
C1217       C  0.12101195  0.54259639  0.96847886    -0.12600
C1218       C  0.12810939  0.55361881  0.99704939     0.04700
C1219       C  0.09365902  0.55628132  0.91941856     0.27200
C1220       C  0.05642625  0.54996835  0.92037764    -0.13300
C1221       C  0.03806965  0.55307114  0.89394142     0.05300
C1222       C  0.05740823  0.56305898  0.86630095    -0.09300
C1223       C  0.09551122  0.55862432  0.86519341     0.06100
C1224       C  0.11367640  0.55734204  0.89202255    -0.13600
Br1225     Br  0.12571765  0.49211163  0.95927228    -0.05700
Br1226     Br  0.08958240  0.66218323  0.99354285    -0.00100
Br1227     Br  0.48586830  0.54796548  0.89753680     0.00400
Br1228     Br  0.16558111  0.55808730  0.89170794    -0.04000
Br1229     Br  0.12654666  0.51489102  0.53628666     0.00500
Br1230     Br  0.08606465  0.63996268  0.92369629    -0.03300
Br1231     Br  0.03012837  0.54209055  0.95857260    -0.04200
Br1232     Br  0.12242143  0.54650826  0.82929955    -0.00200
C1233       C  0.64503798  0.10727547  0.02869460     0.86400
C1234       C  0.67580384  0.08478271  0.04216608    -0.53900
C1235       C  0.69082450  0.09933553  0.06572140     0.09300
C1236       C  0.67641884  0.13817504  0.07150352     0.20200
C1237       C  0.61922068  0.11735716  0.05510177    -0.54600
C1238       C  0.63549350  0.13224280  0.07831844     0.09400
C1239       C  0.66451980  0.14205509  0.01851757    -0.54100
C1240       C  0.67958594  0.15968866  0.04024291     0.10000
H1241       H  0.68487809  0.05874593  0.03461426     0.14500
H1242       H  0.69099265  0.15059476  0.08919416     0.00200
H1243       H  0.59039901  0.11253845  0.05519291     0.14800
H1244       H  0.66550800  0.15281690  0.99540885     0.14600
C1245       C  0.84820898  0.17441015  0.47808526     0.86400
C1246       C  0.82813012  0.15194610  0.45594820    -0.53900
C1247       C  0.81727756  0.17197792  0.43125961     0.09300
C1248       C  0.82544045  0.21289950  0.43136628     0.20200
C1249       C  0.87826120  0.19361943  0.45888437    -0.54600
C1250       C  0.86719315  0.21336950  0.43420232     0.09400
C1251       C  0.82074077  0.20409116  0.48538701    -0.54100
C1252       C  0.80794769  0.22420040  0.46178321     0.10000
H1253       H  0.82213201  0.12325058  0.45879921     0.14500
H1254       H  0.81598336  0.22904330  0.41153635     0.00200
H1255       H  0.90655181  0.18957798  0.46354244     0.14800
H1256       H  0.80948145  0.20631669  0.50804228     0.14600
C1257       C  0.55110718  0.33110388  0.45775470     0.86400
C1258       C  0.57013753  0.35272149  0.43090893    -0.53900
C1259       C  0.58448573  0.33191837  0.40884347     0.09300
C1260       C  0.58123772  0.29059098  0.41729697     0.20200
C1261       C  0.52440642  0.30841420  0.44241640    -0.54600
C1262       C  0.53916859  0.28665901  0.42135004     0.09400
C1263       C  0.57874627  0.30465950  0.46974791    -0.54100
C1264       C  0.59691038  0.28482980  0.44940851     0.10000
H1265       H  0.56790902  0.38215936  0.42778637     0.14500
H1266       H  0.59351569  0.27272960  0.40047808     0.00200
H1267       H  0.49559901  0.31361452  0.44470878     0.14800
H1268       H  0.58654652  0.30538179  0.49274030     0.14600
O1269       O  0.66307535  0.27767917  0.44510007    -0.57900
C1270       C  0.77349325  0.24446954  0.46801638     0.74700
O1271       O  0.70627087  0.30646485  0.03664094    -0.59100
C1272       C  0.63326046  0.27208604  0.45968240     0.74700
C1273       C  0.69245964  0.19670017  0.03052100     0.77000
Cd1274     Cd  0.70160324  0.26473885  0.49208923     1.37500
O1275       O  0.74823708  0.24841867  0.45011561    -0.57900
O1276       O  0.69879726  0.19908293  0.50092131    -0.56800
C1277       C  0.71026284  0.33488096  0.01949890     0.77000
O1278       O  0.67865014  0.22547458  0.04050623    -0.59100
O1279       O  0.76439475  0.26045034  0.99116947    -0.60000
O1280       O  0.63312836  0.25521740  0.98883788    -0.57600
O1281       O  0.71165526  0.33102002  0.48947042    -0.56700
C1282       C  0.79037077  0.07580581  0.23710988     0.86400
C1283       C  0.80755108  0.10175146  0.21179733    -0.53900
C1284       C  0.82509158  0.08416598  0.18925825     0.09300
C1285       C  0.82626210  0.04263417  0.19464281     0.20200
C1286       C  0.76751362  0.04961246  0.22076239    -0.54600
C1287       C  0.78563757  0.03247967  0.19823276     0.09400
C1288       C  0.82271470  0.05327805  0.24755447    -0.54100
C1289       C  0.84233418  0.03660996  0.22586800     0.10000
H1290       H  0.80619324  0.13112364  0.21062218     0.14500
H1291       H  0.84137598  0.02858125  0.17663886     0.00200
H1292       H  0.73832474  0.04836138  0.22441828     0.14800
H1293       H  0.83125413  0.05337189  0.27032973     0.14600
C1294       C  0.78214265  0.40490834  0.02288365     0.86400
C1295       C  0.76179474  0.43569758  0.03791494    -0.53900
C1296       C  0.73476455  0.42503076  0.05830293     0.09300
C1297       C  0.72932555  0.38256520  0.06055124     0.20200
C1298       C  0.79405495  0.38028876  0.05056318    -0.54600
C1299       C  0.76618508  0.36863227  0.07090022     0.09400
C1300       C  0.75374589  0.38196700  0.00982804    -0.54100
C1301       C  0.72687583  0.36911724  0.02862298     0.10000
H1302       H  0.77177883  0.46350013  0.03575003     0.14500
H1303       H  0.70505154  0.37307865  0.07357786     0.00200
H1304       H  0.82173110  0.37506029  0.05554830     0.14800
H1305       H  0.75781610  0.37228023  0.98745629     0.14600
C1306       C  0.87252049  0.35169769  0.26859662     0.86400
C1307       C  0.89497841  0.31991921  0.28190363    -0.53900
C1308       C  0.91750728  0.32946426  0.30337351     0.09300
C1309       C  0.91728782  0.37106206  0.30817262     0.20200
C1310       C  0.85418538  0.36928151  0.29602229    -0.54600
C1311       C  0.87747996  0.37898264  0.31679535     0.09400
C1312       C  0.90234772  0.37762758  0.25628332    -0.54100
C1313       C  0.92405628  0.39032419  0.27667142     0.10000
H1314       H  0.89389153  0.29221051  0.27532828     0.14500
H1315       H  0.93621990  0.37914716  0.32493411     0.00200
H1316       H  0.82508228  0.37210147  0.29931602     0.14800
H1317       H  0.90375433  0.38805654  0.23311016     0.14600
O1318       O  0.98449598  0.51353779  0.20120936    -0.57900
C1319       C  0.87931860  0.02309488  0.23250308     0.74700
O1320       O  0.94933393  0.44844116  0.28812523    -0.59100
C1321       C  0.51430125  0.49909917  0.20824168     0.74700
C1322       C  0.97448432  0.05683077  0.28860764     0.77000
Cd1323     Cd  0.95251450  0.50291957  0.24968054     1.37500
O1324       O  0.90303730  0.01506331  0.21269282    -0.57900
O1325       O  0.96887854  0.06639364  0.26171073    -0.56800
C1326       C  0.93970334  0.42705992  0.26905815     0.77000
O1327       O  0.96718495  0.02412886  0.29713275    -0.59100
O1328       O  0.88951455  0.02120888  0.25899395    -0.57600
O1329       O  0.51716022  0.48927641  0.23544946    -0.57600
O1330       O  0.94005192  0.44021272  0.24240073    -0.56700
C1331       C  0.55436976  0.44665698  0.14611227     0.86400
C1332       C  0.56561276  0.42025530  0.17239094    -0.53900
C1333       C  0.57952697  0.43675827  0.19586640     0.09300
C1334       C  0.58144082  0.47847085  0.19029562     0.20200
C1335       C  0.52814506  0.47228267  0.16175936    -0.54600
C1336       C  0.54150780  0.48904319  0.18493818     0.09400
C1337       C  0.58758869  0.46890073  0.13697626    -0.54100
C1338       C  0.60292022  0.48474073  0.15954244     0.10000
H1339       H  0.56094720  0.39117444  0.17309283     0.14500
H1340       H  0.59228363  0.49320875  0.20863972     0.00200
H1341       H  0.49928238  0.47135243  0.15861511     0.14800
H1342       H  0.60028766  0.46889064  0.11459618     0.14600
O1343       O  0.66579091  0.46972362  0.15409911    -0.57900
C1344       C  0.76436145  0.01861665  0.17408753     0.74700
O1345       O  0.75160127  0.46695511  0.09463424    -0.59100
C1346       C  0.64142108  0.49425748  0.15373926     0.74700
C1347       C  0.70450607  0.07245905  0.08831759     0.77000
Cd1348     Cd  0.71362226  0.50726840  0.12707897     1.37500
O1349       O  0.73300814  0.00591314  0.17944574    -0.57900
O1350       O  0.69540779  0.07300481  0.11574655    -0.56800
C1351       C  0.72663544  0.44995228  0.08320998     0.77000
O1352       O  0.72125624  0.04433292  0.08032153    -0.59100
O1353       O  0.77448398  0.02250860  0.14681065    -0.57600
O1354       O  0.65078920  0.52538654  0.14262288    -0.57600
O1355       O  0.69505830  0.45681347  0.09346958    -0.56700
C1356       C  0.53843151  0.08858069  0.34441272     0.86400
C1357       C  0.01248129  0.06395214  0.33012769    -0.53900
C1358       C  0.99250033  0.08047932  0.30863394     0.09300
C1359       C  0.00074565  0.12164228  0.30272090     0.20200
C1360       C  0.56162114  0.10589977  0.31751702    -0.54600
C1361       C  0.54184849  0.12140204  0.29489701     0.09400
C1362       C  0.01614603  0.12079299  0.35472883    -0.54100
C1363       C  0.99664174  0.13875190  0.33373912     0.10000
H1364       H  0.01230900  0.03464247  0.33522238     0.14500
H1365       H  0.98438032  0.13516239  0.28519253     0.00200
H1366       H  0.59080436  0.10539837  0.31499343     0.14800
H1367       H  0.01746227  0.12994354  0.37721826     0.14600
O1368       O  0.92796620  0.22559988  0.41616171    -0.57900
C1369       C  0.51370262  0.27074284  0.40086282     0.74700
O1370       O  0.97589778  0.20139733  0.32462543    -0.59100
C1371       C  0.89495690  0.22590641  0.41060173     0.74700
C1372       C  0.93324545  0.30092246  0.32380914     0.77000
Cd1373     Cd  0.95552544  0.24291008  0.36656027     1.37500
O1374       O  0.98008225  0.27480682  0.40583778    -0.57900
O1375       O  0.95292716  0.30810500  0.34482897    -0.56800
C1376       C  0.97916315  0.17358568  0.34222519     0.77000
O1377       O  0.92549892  0.26768385  0.32219558    -0.59100
O1378       O  0.02283781  0.25376562  0.37788131    -0.57600
O1379       O  0.88820775  0.23500634  0.38384163    -0.57600
O1380       O  0.97006405  0.17799151  0.36925516    -0.56700
C1381       C  0.84587793  0.34547480  0.24397485     0.01200
C1382       C  0.83513716  0.37608778  0.22547596     0.04000
C1383       C  0.82270448  0.37121286  0.19706931    -0.12000
C1384       C  0.81452802  0.33605636  0.18864043     0.23300
C1385       C  0.81738299  0.30619011  0.20962752    -0.12600
C1386       C  0.83292337  0.31077294  0.23730961     0.04700
C1387       C  0.79720866  0.33272636  0.15970787     0.27200
C1388       C  0.76238271  0.34706190  0.15663642    -0.13300
C1389       C  0.75012745  0.35710412  0.12808135     0.05300
C1390       C  0.77231957  0.35028134  0.10171376    -0.09300
C1391       C  0.80314715  0.32745809  0.10576895     0.06100
C1392       C  0.81658931  0.32056129  0.13445909    -0.13600
Br1393     Br  0.79783868  0.25971935  0.20102219    -0.05700
Br1394     Br  0.83562115  0.42525824  0.23898154    -0.00100
Br1395     Br  0.70343569  0.38071582  0.12889188     0.00400
Br1396     Br  0.86205580  0.29553300  0.13919497    -0.04000
Br1397     Br  0.82749657  0.27196512  0.26793424     0.00500
Br1398     Br  0.81684069  0.41327078  0.16956792    -0.03300
Br1399     Br  0.73295248  0.35553529  0.19265208    -0.04200
Br1400     Br  0.82529310  0.30243505  0.07285284    -0.00200
C1401       C  0.86559819  0.39043818  0.34710416     0.01200
C1402       C  0.86891841  0.42701156  0.35434715     0.04000
C1403       C  0.86261289  0.43683411  0.38404115    -0.12000
C1404       C  0.85016861  0.41067204  0.40638663     0.23300
C1405       C  0.84522611  0.37436284  0.39890546    -0.12600
C1406       C  0.85336331  0.36418315  0.36952658     0.04700
C1407       C  0.83785530  0.42184548  0.43671391     0.27200
C1408       C  0.85869058  0.41414591  0.46174642    -0.13300
C1409       C  0.84335409  0.41788927  0.49096591     0.05300
C1410       C  0.80623806  0.42727104  0.49514362    -0.09300
C1411       C  0.78911534  0.44352783  0.46970642     0.06100
C1412       C  0.80398711  0.43884494  0.44073834    -0.13600
Br1413     Br  0.82634360  0.33868024  0.42889659    -0.05700
Br1414     Br  0.87829989  0.46438132  0.32319182    -0.00100
Br1415     Br  0.87630632  0.40110833  0.02349746     0.00400
Br1416     Br  0.77604645  0.45211813  0.40646023    -0.04000
Br1417     Br  0.84664678  0.31431516  0.35999098     0.00500
Br1418     Br  0.87077697  0.48624919  0.39418495    -0.03300
Br1419     Br  0.90796266  0.39768769  0.45569840    -0.04200
Br1420     Br  0.74268287  0.46801965  0.47327172    -0.00200
C1421       C  0.53582237  0.35337411  0.48326823     0.01200
C1422       C  0.55682264  0.38254568  0.49255951     0.04000
C1423       C  0.54085107  0.40111588  0.01727198    -0.12000
C1424       C  0.51321390  0.38764325  0.03726860     0.23300
C1425       C  0.49340468  0.35719657  0.03094228    -0.12600
C1426       C  0.50395766  0.33728430  0.00616827     0.04700
C1427       C  0.51481438  0.39766667  0.06835128     0.27200
C1428       C  0.54053482  0.37923339  0.08572802    -0.13300
C1429       C  0.55483349  0.39602214  0.10956675     0.05300
C1430       C  0.53968079  0.42928511  0.11914993    -0.09300
C1431       C  0.51459434  0.44827281  0.10045839     0.06100
C1432       C  0.50066959  0.43125264  0.07642074    -0.13600
Br1433     Br  0.95503216  0.34048587  0.05912632    -0.05700
Br1434     Br  0.60657269  0.39118970  0.47805363    -0.00100
Br1435     Br  0.60093188  0.37736706  0.12263272     0.00400
Br1436     Br  0.46545554  0.45556766  0.05170271    -0.04000
Br1437     Br  0.48584263  0.29211027  0.50218694     0.00500
Br1438     Br  0.56642692  0.44465589  0.02577317    -0.03300
Br1439     Br  0.55955401  0.33241450  0.07445547    -0.04200
Br1440     Br  0.50585572  0.50034822  0.10110552    -0.00200
C1441       C  0.58578116  0.41735126  0.22561515     0.01200
C1442       C  0.61606118  0.42582971  0.24201464     0.04000
C1443       C  0.61892932  0.41156850  0.27164901    -0.12000
C1444       C  0.59412330  0.38543887  0.28404260     0.23300
C1445       C  0.56619400  0.37398044  0.26679893    -0.12600
C1446       C  0.56024144  0.39179517  0.23887193     0.04700
C1447       C  0.59394443  0.37348539  0.31630304     0.27200
C1448       C  0.61945977  0.34815583  0.32743826    -0.13300
C1449       C  0.61783276  0.33654857  0.35802366     0.05300
C1450       C  0.58838174  0.34706593  0.37702679    -0.09300
C1451       C  0.56154317  0.37088874  0.36491242     0.06100
C1452       C  0.56618048  0.38617726  0.33559796    -0.13600
Br1453     Br  0.53489410  0.33472919  0.28239062    -0.05700
Br1454     Br  0.65483375  0.45589903  0.22453934    -0.00100
Br1455     Br  0.65670726  0.30711498  0.37358910     0.00400
Br1456     Br  0.53388628  0.42449777  0.32148677    -0.04000
Br1457     Br  0.51398821  0.38433576  0.22215356     0.00500
Br1458     Br  0.65571931  0.42931834  0.29594059    -0.03300
Br1459     Br  0.65580521  0.32847456  0.30050009    -0.04200
Br1460     Br  0.51543884  0.37965035  0.38568612    -0.00200
C1461       C  0.83487453  0.10190668  0.15952333     0.01200
C1462       C  0.80723902  0.11374798  0.14058656     0.04000
C1463       C  0.81581884  0.12387425  0.11045996    -0.12000
C1464       C  0.85190733  0.12248910  0.09920584     0.23300
C1465       C  0.87968916  0.11242130  0.11829749    -0.12600
C1466       C  0.87119079  0.10245100  0.14852179     0.04700
C1467       C  0.86040635  0.13430959  0.06767888     0.27200
C1468       C  0.85927420  0.10946241  0.04514152    -0.13300
C1469       C  0.85919495  0.11801533  0.51478608     0.05300
C1470       C  0.86151859  0.15604276  0.50740894    -0.09300
C1471       C  0.86905334  0.18398988  0.03006573     0.06100
C1472       C  0.86802098  0.17111488  0.06009345    -0.13600
Br1473     Br  0.92923109  0.11232834  0.10282436    -0.05700
Br1474     Br  0.75740111  0.11569476  0.15534059    -0.00100
Br1475     Br  0.87011032  0.08277027  0.48544613     0.00400
Br1476     Br  0.87412509  0.20431505  0.09113870    -0.04000
Br1477     Br  0.90942434  0.09152125  0.17512841     0.00500
Br1478     Br  0.77817207  0.13953417  0.08426925    -0.03300
Br1479     Br  0.85373708  0.05812048  0.05565279    -0.04200
Br1480     Br  0.88219969  0.23435439  0.02034671    -0.00200
C1481       C  0.80431331  0.15523578  0.40460280     0.01200
C1482       C  0.82959826  0.14004355  0.38421548     0.04000
C1483       C  0.81831377  0.12836417  0.35701322    -0.12000
C1484       C  0.78165930  0.13124882  0.35024907     0.23300
C1485       C  0.75611100  0.14483567  0.37109401    -0.12600
C1486       C  0.76740787  0.15657535  0.39835615     0.04700
C1487       C  0.77050010  0.11902873  0.32132421     0.27200
C1488       C  0.77048793  0.14349741  0.29605829    -0.13300
C1489       C  0.76776664  0.13021902  0.26755361     0.05300
C1490       C  0.77030752  0.09216825  0.26418568    -0.09300
C1491       C  0.76165438  0.06873645  0.28990171     0.06100
C1492       C  0.76254156  0.08218817  0.31846982    -0.13600
Br1493     Br  0.70581438  0.14745443  0.36200724    -0.05700
Br1494     Br  0.87977636  0.13477210  0.39341079    -0.00100
Br1495     Br  0.75144122  0.16337051  0.23604317     0.00400
Br1496     Br  0.75618459  0.04980781  0.35374348    -0.04000
Br1497     Br  0.73208843  0.17257234  0.42766596     0.00500
Br1498     Br  0.85317408  0.10882807  0.32860853    -0.03300
Br1499     Br  0.77578428  0.19488263  0.30055196    -0.04200
Br1500     Br  0.75178500  0.01761299  0.28678926    -0.00200
C1501       C  0.61714989  0.13687843  0.10880201     0.01200
C1502       C  0.62691849  0.16587754  0.12625647     0.04000
C1503       C  0.61682081  0.16531206  0.15701320    -0.12000
C1504       C  0.59116155  0.14007050  0.16954555     0.23300
C1505       C  0.57688537  0.11469321  0.15113020    -0.12600
C1506       C  0.59224366  0.11062861  0.12214083     0.04700
C1507       C  0.58126381  0.13760234  0.20236190     0.27200
C1508       C  0.59148206  0.10637377  0.21979707    -0.13300
C1509       C  0.57739465  0.10029529  0.24933584     0.05300
C1510       C  0.55726141  0.12802489  0.26349348    -0.09300
C1511       C  0.54979688  0.16078626  0.24669971     0.06100
C1512       C  0.56012715  0.16478020  0.21596026    -0.13600
Br1513     Br  0.53668888  0.08466408  0.16618214    -0.05700
Br1514     Br  0.65131308  0.20848434  0.10847242    -0.00100
Br1515     Br  0.58248858  0.05193425  0.26821105     0.00400
Br1516     Br  0.54410069  0.20690841  0.19234200    -0.04000
Br1517     Br  0.58211939  0.06574941  0.10400643     0.00500
Br1518     Br  0.64019284  0.19751689  0.18229590    -0.03300
Br1519     Br  0.62521928  0.07173957  0.20312720    -0.04200
Br1520     Br  0.02650378  0.20094819  0.26570666    -0.00200
C1521       C  0.62596148  0.09118843  0.00301114     0.01200
C1522       C  0.59113175  0.11350521  0.49655072     0.04000
C1523       C  0.58094223  0.10372282  0.46866839    -0.12000
C1524       C  0.59010529  0.06900636  0.45903612     0.23300
C1525       C  0.60590461  0.04289939  0.47846426    -0.12600
C1526       C  0.61681589  0.05300321  0.50628223     0.04700
C1527       C  0.57975237  0.05972817  0.42937152     0.27200
C1528       C  0.54342044  0.05280668  0.42518227    -0.13300
C1529       C  0.53040863  0.05780036  0.39656035     0.05300
C1530       C  0.55461133  0.06865236  0.37173638    -0.09300
C1531       C  0.59228462  0.06520675  0.37573392     0.06100
C1532       C  0.60466590  0.06341506  0.40481602    -0.13600
Br1533     Br  0.61242755  0.99371519  0.46648495    -0.05700
Br1534     Br  0.57351131  0.15940071  0.51099064    -0.00100
Br1535     Br  0.97849513  0.05399615  0.39353814     0.00400
Br1536     Br  0.65542720  0.06840023  0.41128232    -0.04000
Br1537     Br  0.63086120  0.01607677  0.02893959     0.00500
Br1538     Br  0.55603853  0.13872408  0.44295727    -0.03300
Br1539     Br  0.51094728  0.04146185  0.45956204    -0.04200
Br1540     Br  0.62708712  0.05616612  0.34365448    -0.00200
C1541       C  0.63803975  0.10689011  0.53559385     0.86400
C1542       C  0.67109884  0.08538854  0.54650903    -0.53900
C1543       C  0.68929524  0.10110825  0.56797694     0.09300
C1544       C  0.67547650  0.14060407  0.57328724     0.20200
C1545       C  0.61624488  0.11755016  0.56371183    -0.54600
C1546       C  0.63558553  0.13447853  0.58377753     0.09400
C1547       C  0.65547754  0.14157871  0.52229908    -0.54100
C1548       C  0.67434639  0.16044556  0.54121450     0.10000
H1549       H  0.67921681  0.05893741  0.53930527     0.14500
H1550       H  0.69147135  0.15496225  0.58912307     0.00200
H1551       H  0.58797037  0.11050260  0.56802047     0.14800
H1552       H  0.65242027  0.15101959  0.49915366     0.14600
C1553       C  0.84509061  0.17691343  0.97855924     0.86400
C1554       C  0.82555110  0.15245206  0.95756326    -0.53900
C1555       C  0.81403838  0.17068582  0.93226027     0.09300
C1556       C  0.82119137  0.21198514  0.93074514     0.20200
C1557       C  0.87441984  0.19586953  0.95879032    -0.54600
C1558       C  0.86292869  0.21373564  0.93351326     0.09400
C1559       C  0.81688901  0.20625076  0.98498547    -0.54100
C1560       C  0.80363810  0.22477342  0.96074788     0.10000
H1561       H  0.82068402  0.12361781  0.96166065     0.14500
H1562       H  0.81136169  0.22673336  0.91039893     0.00200
H1563       H  0.90278137  0.19282073  0.96359316     0.14800
H1564       H  0.80581711  0.20970110  0.00753383     0.14600
C1565       C  0.54754387  0.32685414  0.96065052     0.86400
C1566       C  0.56691467  0.34753360  0.93346623    -0.53900
C1567       C  0.58076374  0.32597693  0.91176549     0.09300
C1568       C  0.57673310  0.28501604  0.92080533     0.20200
C1569       C  0.52024761  0.30425224  0.94563468    -0.54600
C1570       C  0.53468195  0.28207055  0.92470396     0.09400
C1571       C  0.57477197  0.30008495  0.97298807    -0.54100
C1572       C  0.59241809  0.27954480  0.95284237     0.10000
H1573       H  0.56485984  0.37689812  0.92964318     0.14500
H1574       H  0.58853162  0.26643558  0.90433600     0.00200
H1575       H  0.49142798  0.30950920  0.94822206     0.14800
H1576       H  0.58309315  0.30138237  0.99579104     0.14600
O1577       O  0.65858127  0.27675701  0.94792536    -0.57900
C1578       C  0.76947265  0.24570461  0.96657094     0.74700
O1579       O  0.70670095  0.30861564  0.53453113    -0.59100
C1580       C  0.62936669  0.26806323  0.96238451     0.74700
C1581       C  0.68876481  0.19616982  0.52831622     0.77000
Cd1582     Cd  0.69864451  0.26455031  0.99361751     1.37500
O1583       O  0.74211382  0.24475937  0.95082984    -0.57900
O1584       O  0.71133263  0.20079129  0.00635511    -0.56800
C1585       C  0.71381060  0.33612332  0.51694673     0.77000
O1586       O  0.68682379  0.22579244  0.54137008    -0.59100
O1587       O  0.76607687  0.25433119  0.49409882    -0.60000
O1588       O  0.63608279  0.26087910  0.48668532    -0.57600
O1589       O  0.70484420  0.33104238  0.99226586    -0.56700
C1590       C  0.79274497  0.06903627  0.73833137     0.86400
C1591       C  0.80890320  0.09558825  0.71289016    -0.53900
C1592       C  0.82626660  0.07854164  0.68988427     0.09300
C1593       C  0.82824296  0.03701069  0.69496552     0.20200
C1594       C  0.77001840  0.04249786  0.72216777    -0.54600
C1595       C  0.78788110  0.02625690  0.69897615     0.09400
C1596       C  0.82574596  0.04717388  0.74795476    -0.54100
C1597       C  0.84491950  0.03077493  0.72591737     0.10000
H1598       H  0.80715794  0.12487307  0.71207555     0.14500
H1599       H  0.84321565  0.02331491  0.67668955     0.00200
H1600       H  0.74091528  0.04076754  0.72626326     0.14800
H1601       H  0.83476917  0.04710936  0.77060044     0.14600
C1602       C  0.78116920  0.41131798  0.52157521     0.86400
C1603       C  0.75840995  0.44004789  0.53711188    -0.53900
C1604       C  0.73230170  0.42688565  0.55728747     0.09300
C1605       C  0.73027157  0.38404367  0.55873929     0.20200
C1606       C  0.79490684  0.38697710  0.54869670    -0.54600
C1607       C  0.76796530  0.37272595  0.56874107     0.09400
C1608       C  0.75471717  0.38657283  0.50788130    -0.54100
C1609       C  0.72895988  0.37105042  0.52653388     0.10000
H1610       H  0.76658826  0.46846256  0.53585513     0.14500
H1611       H  0.70683603  0.37231318  0.57164880     0.00200
H1612       H  0.82289122  0.38324824  0.55327412     0.14800
H1613       H  0.75941521  0.37811079  0.48520060     0.14600
C1614       C  0.87316321  0.34605624  0.76737648     0.86400
C1615       C  0.89515528  0.31377654  0.78060105    -0.53900
C1616       C  0.91794397  0.32302546  0.80205268     0.09300
C1617       C  0.91805705  0.36442516  0.80718255     0.20200
C1618       C  0.85497419  0.36341323  0.79495935    -0.54600
C1619       C  0.87833491  0.37262390  0.81582622     0.09400
C1620       C  0.90333732  0.37174992  0.75535818    -0.54100
C1621       C  0.92515071  0.38380253  0.77590867     0.10000
H1622       H  0.89341105  0.28602022  0.77423512     0.14500
H1623       H  0.93704604  0.37214631  0.82402823     0.00200
H1624       H  0.82588682  0.36631303  0.79832568     0.14800
H1625       H  0.90483948  0.38263032  0.73229593     0.14600
O1626       O  0.98713744  0.50676380  0.70295581    -0.57900
C1627       C  0.88152198  0.01635036  0.73243621     0.74700
O1628       O  0.95103499  0.44106204  0.78828557    -0.59100
C1629       C  0.51673006  0.49225796  0.71044418     0.74700
C1630       C  0.96971226  0.05098188  0.79087490     0.77000
Cd1631     Cd  0.95385427  0.49596655  0.75070533     1.37500
O1632       O  0.90557343  0.00903954  0.71266881    -0.57900
O1633       O  0.96969331  0.05855503  0.76310718    -0.56800
C1634       C  0.94119668  0.42030636  0.76883365     0.77000
O1635       O  0.96073832  0.01878609  0.79971469    -0.59100
O1636       O  0.89103849  0.01303116  0.75905944    -0.57600
O1637       O  0.51917477  0.48291796  0.73782935    -0.57600
O1638       O  0.94159509  0.43395607  0.74233611    -0.56700
C1639       C  0.55631968  0.43967046  0.64796962     0.86400
C1640       C  0.56602751  0.41216735  0.67390138    -0.53900
C1641       C  0.57981209  0.42753823  0.69795868     0.09300
C1642       C  0.58345474  0.46931629  0.69322119     0.20200
C1643       C  0.53068697  0.46585648  0.66368486    -0.54600
C1644       C  0.54408313  0.48156679  0.68738920     0.09400
C1645       C  0.59046645  0.46067378  0.63980736    -0.54100
C1646       C  0.60590744  0.47529815  0.66290175     0.10000
H1647       H  0.56056790  0.38327702  0.67388900     0.14500
H1648       H  0.59455632  0.48295412  0.71205853     0.00200
H1649       H  0.50192778  0.46617127  0.65994622     0.14800
H1650       H  0.60328546  0.46127738  0.61744396     0.14600
O1651       O  0.66613613  0.46351833  0.64518245    -0.57900
C1652       C  0.76617389  0.01412897  0.67444290     0.74700
O1653       O  0.74706629  0.45513761  0.60259466    -0.59100
C1654       C  0.64434243  0.48558447  0.65730348     0.74700
C1655       C  0.70380219  0.07417280  0.59061505     0.77000
Cd1656     Cd  0.71388564  0.50638963  0.62824309     1.37500
O1657       O  0.73502147  0.00099007  0.67979770    -0.57900
O1658       O  0.69214066  0.07196233  0.61757239    -0.56800
C1659       C  0.72420243  0.45044955  0.58302306     0.77000
O1660       O  0.72346684  0.04787460  0.58264896    -0.59100
O1661       O  0.77557261  0.02012005  0.64711077    -0.57600
O1662       O  0.65581591  0.51757775  0.65920347    -0.57600
O1663       O  0.69597298  0.46991860  0.58495773    -0.56700
C1664       C  0.53638016  0.08340091  0.84168566     0.86400
C1665       C  0.00769202  0.05921251  0.83093585    -0.53900
C1666       C  0.98473336  0.07572050  0.81177076     0.09300
C1667       C  0.99194994  0.11742695  0.80596793     0.20200
C1668       C  0.55456797  0.10060096  0.81207752    -0.54600
C1669       C  0.53135096  0.11921522  0.79301521     0.09400
C1670       C  0.01663642  0.11568986  0.85491086    -0.54100
C1671       C  0.99360383  0.13367274  0.83682080     0.10000
H1672       H  0.00908555  0.02976041  0.83508527     0.14500
H1673       H  0.97105518  0.13213295  0.79368165     0.00200
H1674       H  0.58272287  0.09818487  0.80613842     0.14800
H1675       H  0.02205499  0.12481121  0.87680186     0.14600
O1676       O  0.92349122  0.22656554  0.91642119    -0.57900
C1677       C  0.50966153  0.26719218  0.90335970     0.74700
O1678       O  0.97010849  0.19478398  0.82764553    -0.59100
C1679       C  0.89092816  0.22492415  0.90990669     0.74700
C1680       C  0.93342009  0.29477314  0.82274348     0.77000
Cd1681     Cd  0.95322473  0.23883604  0.86773507     1.37500
O1682       O  0.97621979  0.27434508  0.90596962    -0.57900
O1683       O  0.95314315  0.30242428  0.84361630    -0.56800
C1684       C  0.97759223  0.16871308  0.84596388     0.77000
O1685       O  0.92515179  0.26160320  0.82180107    -0.59100
O1686       O  0.01930671  0.24780645  0.88190364    -0.57600
O1687       O  0.88520690  0.23046218  0.88252987    -0.57600
O1688       O  0.97306705  0.17497260  0.87323294    -0.56700
C1689       C  0.84662372  0.34125781  0.74242107     0.01200
C1690       C  0.83623483  0.37297145  0.72502692     0.04000
C1691       C  0.82540446  0.37007239  0.69587760    -0.12000
C1692       C  0.81788523  0.33567798  0.68558220     0.23300
C1693       C  0.82030473  0.30445377  0.70525087    -0.12600
C1694       C  0.83451329  0.30711231  0.73371576     0.04700
C1695       C  0.80094837  0.33444707  0.65631674     0.27200
C1696       C  0.76589220  0.34849836  0.65381387    -0.13300
C1697       C  0.75296563  0.35876622  0.62556924     0.05300
C1698       C  0.77521370  0.35362417  0.59893738    -0.09300
C1699       C  0.80694348  0.33191387  0.60212329     0.06100
C1700       C  0.82057512  0.32393950  0.63060097    -0.13600
Br1701     Br  0.80221296  0.25862005  0.69363326    -0.05700
Br1702     Br  0.83598656  0.42102986  0.74074111    -0.00100
Br1703     Br  0.70499220  0.37983208  0.62701829     0.00400
Br1704     Br  0.86664111  0.29974323  0.63442538    -0.04000
Br1705     Br  0.82794817  0.26640155  0.76251010     0.00500
Br1706     Br  0.82086628  0.41374908  0.66990632    -0.03300
Br1707     Br  0.73680203  0.35613764  0.69018491    -0.04200
Br1708     Br  0.83023314  0.30982790  0.56814039    -0.00200
C1709       C  0.86651153  0.38326064  0.84636505     0.01200
C1710       C  0.86986800  0.41954416  0.85429223     0.04000
C1711       C  0.86352794  0.42851269  0.88421828    -0.12000
C1712       C  0.85110137  0.40174424  0.90613798     0.23300
C1713       C  0.84601040  0.36576428  0.89787986    -0.12600
C1714       C  0.85414821  0.35646628  0.86827355     0.04700
C1715       C  0.83889285  0.41202288  0.93680709     0.27200
C1716       C  0.85932409  0.40267921  0.96180349    -0.13300
C1717       C  0.84426236  0.40640181  0.99117222     0.05300
C1718       C  0.80775564  0.41813763  0.99566641    -0.09300
C1719       C  0.79105495  0.43495294  0.97013498     0.06100
C1720       C  0.80550940  0.42982634  0.94108721    -0.13600
Br1721     Br  0.82662199  0.32935889  0.92701968    -0.05700
Br1722     Br  0.87934072  0.45763422  0.82370698    -0.00100
Br1723     Br  0.87534651  0.41736143  0.52337163     0.00400
Br1724     Br  0.77741164  0.44350059  0.90693653    -0.04000
Br1725     Br  0.84702658  0.30709823  0.85765330     0.00500
Br1726     Br  0.87144388  0.47764574  0.89517329    -0.03300
Br1727     Br  0.90769941  0.38370096  0.95541992    -0.04200
Br1728     Br  0.74534357  0.46090986  0.97356583    -0.00200
C1729       C  0.53267918  0.35015891  0.98568493     0.01200
C1730       C  0.55279385  0.38086206  0.99333388     0.04000
C1731       C  0.54534184  0.40120510  0.51751030    -0.12000
C1732       C  0.51635369  0.38812094  0.53619983     0.23300
C1733       C  0.49530130  0.35953819  0.52797516    -0.12600
C1734       C  0.50604357  0.34053805  0.50274701     0.04700
C1735       C  0.51725770  0.39596996  0.56784833     0.27200
C1736       C  0.54241749  0.37605051  0.58483651    -0.13300
C1737       C  0.55631313  0.39088869  0.60977260     0.05300
C1738       C  0.54174377  0.42395097  0.62028329    -0.09300
C1739       C  0.51794254  0.44476288  0.60164348     0.06100
C1740       C  0.50377786  0.42937841  0.57696468    -0.13600
Br1741     Br  0.95476235  0.34375454  0.55426888    -0.05700
Br1742     Br  0.60232560  0.39001138  0.97858510    -0.00100
Br1743     Br  0.60136737  0.37012176  0.62335399     0.00400
Br1744     Br  0.46971296  0.45606775  0.55264333    -0.04000
Br1745     Br  0.48489549  0.28827342  0.00691247     0.00500
Br1746     Br  0.57333795  0.44116847  0.52960231    -0.03300
Br1747     Br  0.56176554  0.33036799  0.57121970    -0.04200
Br1748     Br  0.51232454  0.49722741  0.60304322    -0.00200
C1749       C  0.58447052  0.40727973  0.72751614     0.01200
C1750       C  0.61473209  0.41421816  0.74435670     0.04000
C1751       C  0.61603404  0.40028022  0.77416181    -0.12000
C1752       C  0.58947040  0.37586455  0.78634875     0.23300
C1753       C  0.56115556  0.36595000  0.76882519    -0.12600
C1754       C  0.55729489  0.38318245  0.74033720     0.04700
C1755       C  0.58866295  0.36390284  0.81854609     0.27200
C1756       C  0.61345135  0.33787470  0.82974935    -0.13300
C1757       C  0.61255666  0.32767604  0.86053682     0.05300
C1758       C  0.58409253  0.33996345  0.87971812    -0.09300
C1759       C  0.55752224  0.36404008  0.86750740     0.06100
C1760       C  0.56194491  0.37828039  0.83790800    -0.13600
Br1761     Br  0.52633856  0.33002973  0.78483203    -0.05700
Br1762     Br  0.65556255  0.44158197  0.72699927    -0.00100
Br1763     Br  0.65129912  0.29798134  0.87606517     0.00400
Br1764     Br  0.53120466  0.41786065  0.82371048    -0.04000
Br1765     Br  0.51207394  0.37644783  0.72173127     0.00500
Br1766     Br  0.65281719  0.41668235  0.79910514    -0.03300
Br1767     Br  0.64801316  0.31561850  0.80273463    -0.04200
Br1768     Br  0.51200248  0.37464053  0.88853782    -0.00200
C1769       C  0.83541417  0.09660830  0.66005706     0.01200
C1770       C  0.80743626  0.10916788  0.64169664     0.04000
C1771       C  0.81536439  0.11962763  0.61147916    -0.12000
C1772       C  0.85107584  0.11753093  0.59942404     0.23300
C1773       C  0.87919839  0.10653104  0.61792414    -0.12600
C1774       C  0.87140577  0.09639212  0.64824369     0.04700
C1775       C  0.85903612  0.12945641  0.56770818     0.27200
C1776       C  0.85562956  0.10518782  0.54498597    -0.13300
C1777       C  0.86125126  0.12231921  0.01498677     0.05300
C1778       C  0.85984569  0.16030138  0.00773335    -0.09300
C1779       C  0.87155580  0.17875791  0.53024272     0.06100
C1780       C  0.86922798  0.16565012  0.56027063    -0.13600
Br1781     Br  0.92833879  0.10547043  0.60155478    -0.05700
Br1782     Br  0.75792506  0.11122959  0.65724535    -0.00100
Br1783     Br  0.87559375  0.08853689  0.98527387     0.00400
Br1784     Br  0.87699995  0.19805575  0.59161642    -0.04000
Br1785     Br  0.91028265  0.08386551  0.67384420     0.00500
Br1786     Br  0.77738786  0.13692386  0.58626392    -0.03300
Br1787     Br  0.84471442  0.05463679  0.55536739    -0.04200
Br1788     Br  0.88667980  0.22873244  0.52137817    -0.00200
C1789       C  0.80181266  0.15181055  0.90630474     0.01200
C1790       C  0.82760496  0.13554289  0.88695196     0.04000
C1791       C  0.81696944  0.12177346  0.86026686    -0.12000
C1792       C  0.78066270  0.12477492  0.85245282     0.23300
C1793       C  0.75464189  0.13977245  0.87223197    -0.12600
C1794       C  0.76509111  0.15231529  0.89951375     0.04700
C1795       C  0.77057687  0.11170021  0.82340526     0.27200
C1796       C  0.76975036  0.13594642  0.79800458    -0.13300
C1797       C  0.76823053  0.12233452  0.76947491     0.05300
C1798       C  0.77299572  0.08446363  0.76606465    -0.09300
C1799       C  0.76593412  0.06061257  0.79188197     0.06100
C1800       C  0.76524306  0.07432974  0.82047166    -0.13600
Br1801     Br  0.70501678  0.14400188  0.86148856    -0.05700
Br1802     Br  0.87772163  0.13208174  0.89665094    -0.00100
Br1803     Br  0.75090595  0.15453581  0.73778809     0.00400
Br1804     Br  0.76072955  0.04172186  0.85575642    -0.04000
Br1805     Br  0.72891239  0.16789180  0.92834431     0.00500
Br1806     Br  0.85237157  0.09941005  0.83388692    -0.03300
Br1807     Br  0.77292091  0.18768268  0.80216679    -0.04200
Br1808     Br  0.76050707  0.00867009  0.78894271    -0.00200
C1809       C  0.62110733  0.13906622  0.61491424     0.01200
C1810       C  0.61803180  0.17399107  0.62630507     0.04000
C1811       C  0.60363017  0.17797163  0.65564577    -0.12000
C1812       C  0.59489117  0.14688059  0.67444619     0.23300
C1813       C  0.59887437  0.11200775  0.66334778    -0.12600
C1814       C  0.60984058  0.10818956  0.63331684     0.04700
C1815       C  0.57684508  0.15001047  0.70453646     0.27200
C1816       C  0.59683023  0.15471060  0.72968859    -0.13300
C1817       C  0.58006841  0.15019238  0.75856213     0.05300
C1818       C  0.54402716  0.13699544  0.76272766    -0.09300
C1819       C  0.52270779  0.13846519  0.73687688     0.06100
C1820       C  0.53943038  0.14474553  0.70813349    -0.13600
Br1821     Br  0.58795345  0.06939521  0.68944841    -0.05700
Br1822     Br  0.63041113  0.21661702  0.60094842    -0.00100
Br1823     Br  0.60557169  0.16685931  0.79162739     0.00400
Br1824     Br  0.51160782  0.14462447  0.67270352    -0.04000
Br1825     Br  0.60652925  0.06069256  0.61747628     0.00500
Br1826     Br  0.59351263  0.22581587  0.66951215    -0.03300
Br1827     Br  0.64755724  0.16589117  0.72446381    -0.04200
Br1828     Br  0.97078883  0.13476446  0.73762138    -0.00200
C1829       C  0.61426834  0.09007689  0.51330869     0.01200
C1830       C  0.60855199  0.11530027  0.98234876     0.04000
C1831       C  0.60295322  0.10463817  0.95363280    -0.12000
C1832       C  0.60920624  0.06828128  0.94664893     0.23300
C1833       C  0.62100139  0.04259408  0.96849798    -0.12600
C1834       C  0.62810747  0.05361959  0.99706568     0.04700
C1835       C  0.59364598  0.05627957  0.91943912     0.27200
C1836       C  0.55641171  0.04997256  0.92040187    -0.13300
C1837       C  0.53805233  0.05307504  0.89396698     0.05300
C1838       C  0.55738926  0.06305969  0.86632569    -0.09300
C1839       C  0.59549090  0.05861699  0.86521483     0.06100
C1840       C  0.61366000  0.05733529  0.89204163    -0.13600
Br1841     Br  0.62568972  0.99210580  0.95929767    -0.05700
Br1842     Br  0.58959914  0.16219026  0.99355152    -0.00100
Br1843     Br  0.98589668  0.04796764  0.89751942     0.00400
Br1844     Br  0.66556516  0.05807787  0.89172085    -0.04000
Br1845     Br  0.62644851  0.01493032  0.53633736     0.00500
Br1846     Br  0.58607986  0.13996484  0.92370605    -0.03300
Br1847     Br  0.53011661  0.04210331  0.95859872    -0.04200
Br1848     Br  0.62238926  0.04647922  0.82932130    -0.00200
C1849       C  0.64502540  0.60727613  0.02868887     0.86400
C1850       C  0.67579200  0.58478504  0.04216013    -0.53900
C1851       C  0.69081110  0.59933719  0.06571622     0.09300
C1852       C  0.67640281  0.63817528  0.07150000     0.20200
C1853       C  0.61920580  0.61735465  0.05509631    -0.54600
C1854       C  0.63547767  0.63224075  0.07831403     0.09400
C1855       C  0.66450491  0.64205803  0.01851384    -0.54100
C1856       C  0.67956980  0.65969079  0.04024024     0.10000
H1857       H  0.68486884  0.55874799  0.03460665     0.14500
H1858       H  0.69097562  0.65059416  0.08919114     0.00200
H1859       H  0.59038967  0.61253578  0.05518610     0.14800
H1860       H  0.66549437  0.65282112  0.99540554     0.14600
C1861       C  0.84820736  0.67439956  0.47807756     0.86400
C1862       C  0.82812155  0.65194153  0.45594063    -0.53900
C1863       C  0.81727200  0.67197712  0.43125266     0.09300
C1864       C  0.82544470  0.71289672  0.43136043     0.20200
C1865       C  0.87826290  0.69360142  0.45887598    -0.54600
C1866       C  0.86719804  0.71335606  0.43419499     0.09400
C1867       C  0.82074708  0.70408710  0.48538114    -0.54100
C1868       C  0.80795658  0.72420000  0.46177798     0.10000
H1869       H  0.82211857  0.62324594  0.45879046     0.14500
H1870       H  0.81599015  0.72904411  0.41153104     0.00200
H1871       H  0.90655309  0.68955339  0.46353388     0.14800
H1872       H  0.80949068  0.70631333  0.50803450     0.14600
C1873       C  0.55111416  0.83109500  0.45776178     0.86400
C1874       C  0.57014150  0.85271632  0.43091672    -0.53900
C1875       C  0.58449032  0.83191637  0.40884943     0.09300
C1876       C  0.58124553  0.79058794  0.41730034     0.20200
C1877       C  0.52441407  0.80840488  0.44242319    -0.54600
C1878       C  0.53917643  0.78665276  0.42135446     0.09400
C1879       C  0.57875559  0.80465183  0.46975246    -0.54100
C1880       C  0.59692044  0.78482537  0.44941128     0.10000
H1881       H  0.56791107  0.88215434  0.42779630     0.14500
H1882       H  0.59352425  0.77272936  0.40047985     0.00200
H1883       H  0.49560819  0.81360253  0.44471775     0.14800
H1884       H  0.58655663  0.80537279  0.49274471     0.14600
O1885       O  0.66308646  0.77768258  0.44510219    -0.57900
C1886       C  0.77350376  0.74447078  0.46801340     0.74700
O1887       O  0.70626171  0.80646186  0.03664318    -0.59100
C1888       C  0.63327209  0.77208438  0.45968400     0.74700
C1889       C  0.69244590  0.69670192  0.03051992     0.77000
Cd1890     Cd  0.70161582  0.76473948  0.49209081     1.37500
O1891       O  0.74824577  0.74842006  0.45011442    -0.57900
O1892       O  0.69880941  0.69908288  0.50092491    -0.56800
C1893       C  0.71025154  0.83488008  0.01950332     0.77000
O1894       O  0.67863332  0.72547635  0.04050252    -0.59100
O1895       O  0.76438534  0.76045745  0.99116511    -0.60000
O1896       O  0.63312057  0.75521319  0.98883349    -0.57600
O1897       O  0.71166966  0.83102132  0.48947281    -0.56700
C1898       C  0.79036055  0.57581637  0.23710083     0.86400
C1899       C  0.80753767  0.60176359  0.21178766    -0.53900
C1900       C  0.82508060  0.58417870  0.18924894     0.09300
C1901       C  0.82625624  0.54264716  0.19463486     0.20200
C1902       C  0.76750694  0.54961953  0.22075406    -0.54600
C1903       C  0.78563293  0.53248787  0.19822486     0.09400
C1904       C  0.82270705  0.55329334  0.24754619    -0.54100
C1905       C  0.84232832  0.53662571  0.22586036     0.10000
H1906       H  0.80617677  0.63113186  0.21061202     0.14500
H1907       H  0.84137228  0.52859490  0.17663102     0.00200
H1908       H  0.73831681  0.54836529  0.22440989     0.14800
H1909       H  0.83124518  0.55338799  0.27032110     0.14600
C1910       C  0.78213195  0.90490600  0.02289339     0.86400
C1911       C  0.76178290  0.93569458  0.03792411    -0.53900
C1912       C  0.73475182  0.92502758  0.05831095     0.09300
C1913       C  0.72931278  0.88256188  0.06055839     0.20200
C1914       C  0.79404274  0.88028581  0.05057305    -0.54600
C1915       C  0.76617150  0.86862894  0.07090862     0.09400
C1916       C  0.75373646  0.88196487  0.00983577    -0.54100
C1917       C  0.72686502  0.86911503  0.02862955     0.10000
H1918       H  0.77176809  0.96349820  0.03576060     0.14500
H1919       H  0.70503843  0.87307499  0.07358419     0.00200
H1920       H  0.82171607  0.87505782  0.05555942     0.14800
H1921       H  0.75780778  0.87227951  0.98746521     0.14600
C1922       C  0.87251796  0.85169989  0.26859962     0.86400
C1923       C  0.89497620  0.81992045  0.28190482    -0.53900
C1924       C  0.91750669  0.82946319  0.30337403     0.09300
C1925       C  0.91728879  0.87106074  0.30817430     0.20200
C1926       C  0.85418489  0.86928327  0.29602646    -0.54600
C1927       C  0.87748182  0.87898278  0.31679856     0.09400
C1928       C  0.90234476  0.87763014  0.25628600    -0.54100
C1929       C  0.92405627  0.89032362  0.27667337     0.10000
H1930       H  0.89388841  0.79220988  0.27532763     0.14500
H1931       H  0.93622214  0.87914467  0.32493527     0.00200
H1932       H  0.82508469  0.87210434  0.29932104     0.14800
H1933       H  0.90374997  0.88806123  0.23311251     0.14600
O1934       O  0.98450568  0.01352883  0.20121156    -0.57900
C1935       C  0.87931123  0.52310764  0.23249770     0.74700
O1936       O  0.94933624  0.94843868  0.28812814    -0.59100
C1937       C  0.51430026  0.99910466  0.20824564     0.74700
C1938       C  0.97448075  0.55682950  0.28860790     0.77000
Cd1939     Cd  0.95252427  0.00291469  0.24968265     1.37500
O1940       O  0.90302920  0.51506955  0.21268897    -0.57900
O1941       O  0.96888281  0.56639291  0.26170964    -0.56800
C1942       C  0.93970910  0.92705662  0.26906035     0.77000
O1943       O  0.96716996  0.52413041  0.29713366    -0.59100
O1944       O  0.88950654  0.52122420  0.25898879    -0.57600
O1945       O  0.51715795  0.98927993  0.23545326    -0.57600
O1946       O  0.94006519  0.94020705  0.24240203    -0.56700
C1947       C  0.55437199  0.94666139  0.14611989     0.86400
C1948       C  0.56561540  0.92026230  0.17239990    -0.53900
C1949       C  0.57952832  0.93676763  0.19587486     0.09300
C1950       C  0.58144048  0.97847984  0.19030167     0.20200
C1951       C  0.52814578  0.97228743  0.16176474    -0.54600
C1952       C  0.54150778  0.98904991  0.18494314     0.09400
C1953       C  0.58759047  0.96890565  0.13698270    -0.54100
C1954       C  0.60292050  0.98474811  0.15954912     0.10000
H1955       H  0.56095020  0.89118031  0.17310383     0.14500
H1956       H  0.59228150  0.99322083  0.20864525     0.00200
H1957       H  0.49928687  0.97135759  0.15861913     0.14800
H1958       H  0.60028835  0.96889342  0.11460702     0.14600
O1959       O  0.66579003  0.96972629  0.15410922    -0.57900
C1960       C  0.76435874  0.51862270  0.17407956     0.74700
O1961       O  0.75159565  0.96693614  0.09465170    -0.59100
C1962       C  0.64142199  0.99426189  0.15374711     0.74700
C1963       C  0.70449623  0.57246128  0.08831100     0.77000
Cd1964     Cd  0.71362333  0.00726587  0.12708721     1.37500
O1965       O  0.73300616  0.50591732  0.17943744    -0.57900
O1966       O  0.69540223  0.57300681  0.11574071    -0.56800
C1967       C  0.72662610  0.94994732  0.08321947     0.77000
O1968       O  0.72124560  0.54433551  0.08031316    -0.59100
O1969       O  0.77448182  0.52251449  0.14680283    -0.57600
O1970       O  0.65079266  0.02538983  0.14263004    -0.57600
O1971       O  0.69504887  0.95682280  0.09347112    -0.56700
C1972       C  0.53843302  0.58858578  0.34441086     0.86400
C1973       C  0.01247783  0.56394250  0.33012955    -0.53900
C1974       C  0.99250052  0.58047371  0.30863495     0.09300
C1975       C  0.00075187  0.62163524  0.30272270     0.20200
C1976       C  0.56162005  0.60591002  0.31751504    -0.54600
C1977       C  0.54184305  0.62141027  0.29489615     0.09400
C1978       C  0.01614824  0.62078244  0.35473140    -0.54100
C1979       C  0.99664780  0.63874485  0.33374055     0.10000
H1980       H  0.01230083  0.53463441  0.33522343     0.14500
H1981       H  0.98438987  0.63515781  0.28519329     0.00200
H1982       H  0.59079520  0.60541286  0.31499072     0.14800
H1983       H  0.01746394  0.62993191  0.37722173     0.14600
O1984       O  0.92797620  0.72553874  0.41614529    -0.57900
C1985       C  0.51370873  0.77073971  0.40086619     0.74700
O1986       O  0.97588129  0.70138287  0.32461972    -0.59100
C1987       C  0.89496339  0.72589155  0.41059518     0.74700
C1988       C  0.93324708  0.80092026  0.32380773     0.77000
Cd1989     Cd  0.95553041  0.74290624  0.36655624     1.37500
O1990       O  0.98007927  0.77478168  0.40584966    -0.57900
O1991       O  0.95292340  0.80810271  0.34483121    -0.56800
C1992       C  0.97917114  0.67358028  0.34222508     0.77000
O1993       O  0.92550755  0.76768043  0.32218881    -0.59100
O1994       O  0.02283855  0.75379888  0.37786397    -0.57600
O1995       O  0.88820983  0.73504082  0.38384482    -0.57600
O1996       O  0.97009396  0.67799628  0.36925717    -0.56700
C1997       C  0.84587305  0.84547764  0.24397933     0.01200
C1998       C  0.83513232  0.87609010  0.22547995     0.04000
C1999       C  0.82269761  0.87121420  0.19707415    -0.12000
C2000       C  0.81451695  0.83605779  0.18864768     0.23300
C2001       C  0.81737206  0.80619249  0.20963565    -0.12600
C2002       C  0.83291573  0.81077604  0.23731625     0.04700
C2003       C  0.79719558  0.83272710  0.15971615     0.27200
C2004       C  0.76237046  0.84706529  0.15664482    -0.13300
C2005       C  0.75011395  0.85710438  0.12808958     0.05300
C2006       C  0.77230504  0.85027860  0.10172226    -0.09300
C2007       C  0.80313185  0.82745460  0.10577774     0.06100
C2008       C  0.81657449  0.82055889  0.13446770    -0.13600
Br2009     Br  0.79782538  0.75972177  0.20103303    -0.05700
Br2010     Br  0.83561656  0.92526079  0.23898458    -0.00100
Br2011     Br  0.70342167  0.88071528  0.12889863     0.00400
Br2012     Br  0.86204059  0.79552985  0.13920351    -0.04000
Br2013     Br  0.82749057  0.77196991  0.26794233     0.00500
Br2014     Br  0.81683849  0.91327025  0.16957002    -0.03300
Br2015     Br  0.73294333  0.85554721  0.19266027    -0.04200
Br2016     Br  0.82527731  0.80243096  0.07286179    -0.00200
C2017       C  0.86560260  0.89043903  0.34710759     0.01200
C2018       C  0.86892471  0.92701234  0.35435001     0.04000
C2019       C  0.86262443  0.93683482  0.38404451    -0.12000
C2020       C  0.85018141  0.91067316  0.40639086     0.23300
C2021       C  0.84523538  0.87436444  0.39890997    -0.12600
C2022       C  0.85336921  0.86418449  0.36953076     0.04700
C2023       C  0.83787120  0.92184693  0.43671867     0.27200
C2024       C  0.85870676  0.91414351  0.46175044    -0.13300
C2025       C  0.84337180  0.91788653  0.49097045     0.05300
C2026       C  0.80625662  0.92727124  0.49514939    -0.09300
C2027       C  0.78913409  0.94353082  0.46971309     0.06100
C2028       C  0.80400440  0.93884861  0.44074451    -0.13600
Br2029     Br  0.82635166  0.83868318  0.42890166    -0.05700
Br2030     Br  0.87830004  0.96438194  0.32319340    -0.00100
Br2031     Br  0.87629564  0.90110434  0.02351298     0.00400
Br2032     Br  0.77606250  0.95212443  0.40646757    -0.04000
Br2033     Br  0.84664946  0.81431710  0.35999540     0.00500
Br2034     Br  0.87079388  0.98624912  0.39418767    -0.03300
Br2035     Br  0.90797652  0.89767881  0.45570082    -0.04200
Br2036     Br  0.74270356  0.96802623  0.47327958    -0.00200
C2037       C  0.53582816  0.85336157  0.48327708     0.01200
C2038       C  0.55682721  0.88253225  0.49257149     0.04000
C2039       C  0.54086536  0.90111687  0.01728711    -0.12000
C2040       C  0.51322061  0.88764716  0.03727784     0.23300
C2041       C  0.49340773  0.85720559  0.03094512    -0.12600
C2042       C  0.50396130  0.83729706  0.00616922     0.04700
C2043       C  0.51481250  0.89766867  0.06836165     0.27200
C2044       C  0.54052536  0.87923066  0.08574302    -0.13300
C2045       C  0.55482755  0.89602040  0.10957971     0.05300
C2046       C  0.53968213  0.92928845  0.11915831    -0.09300
C2047       C  0.51460073  0.94827903  0.10046392     0.06100
C2048       C  0.50067410  0.93125879  0.07642713    -0.13600
Br2049     Br  0.95504945  0.84048640  0.05913662    -0.05700
Br2050     Br  0.60657563  0.89118207  0.47806378    -0.00100
Br2051     Br  0.60092428  0.87736065  0.12264509     0.00400
Br2052     Br  0.46546823  0.95557890  0.05170400    -0.04000
Br2053     Br  0.48585718  0.79209059  0.50219498     0.00500
Br2054     Br  0.56645064  0.94464696  0.02579888    -0.03300
Br2055     Br  0.55953182  0.83240394  0.07447823    -0.04200
Br2056     Br  0.50587214  0.00035642  0.10110706    -0.00200
C2057       C  0.58578220  0.91736330  0.22562470     0.01200
C2058       C  0.61605948  0.92584616  0.24202608     0.04000
C2059       C  0.61892757  0.91158405  0.27166026    -0.12000
C2060       C  0.59412540  0.88544941  0.28405162     0.23300
C2061       C  0.56619888  0.87398808  0.26680652    -0.12600
C2062       C  0.56024482  0.89180406  0.23888038     0.04700
C2063       C  0.59394696  0.87349314  0.31631146     0.27200
C2064       C  0.61946467  0.84816535  0.32744536    -0.13300
C2065       C  0.61783811  0.83655508  0.35803012     0.05300
C2066       C  0.58838558  0.84706757  0.37703370    -0.09300
C2067       C  0.56154526  0.87088942  0.36492078     0.06100
C2068       C  0.56618143  0.88618062  0.33560702    -0.13600
Br2069     Br  0.53490513  0.83473030  0.28239473    -0.05700
Br2070     Br  0.65482854  0.95592295  0.22455428    -0.00100
Br2071     Br  0.65671570  0.80712513  0.37359446     0.00400
Br2072     Br  0.53388390  0.92449908  0.32149764    -0.04000
Br2073     Br  0.51399150  0.88434283  0.22216267     0.00500
Br2074     Br  0.65571228  0.92933856  0.29595470    -0.03300
Br2075     Br  0.65581298  0.82849074  0.30050617    -0.04200
Br2076     Br  0.51544102  0.87964726  0.38569585    -0.00200
C2077       C  0.83486486  0.60192071  0.15951450     0.01200
C2078       C  0.80723093  0.61376501  0.14057702     0.04000
C2079       C  0.81581310  0.62389533  0.11045138    -0.12000
C2080       C  0.85190233  0.62251021  0.09919886     0.23300
C2081       C  0.87968228  0.61243802  0.11829104    -0.12600
C2082       C  0.87118172  0.60246504  0.14851447     0.04700
C2083       C  0.86040446  0.63433317  0.06767288     0.27200
C2084       C  0.85927994  0.60948657  0.04513447    -0.13300
C2085       C  0.85917789  0.61800354  0.51478010     0.05300
C2086       C  0.86151438  0.65602949  0.50740120    -0.09300
C2087       C  0.86905270  0.68401561  0.03006166     0.06100
C2088       C  0.86801763  0.67113935  0.06008923    -0.13600
Br2089     Br  0.92922481  0.61234175  0.10281958    -0.05700
Br2090     Br  0.75739202  0.61570994  0.15532859    -0.00100
Br2091     Br  0.87008484  0.58275418  0.48544217     0.00400
Br2092     Br  0.87411691  0.70433807  0.09113614    -0.04000
Br2093     Br  0.90941324  0.59153219  0.17512241     0.00500
Br2094     Br  0.77816848  0.63955931  0.08425961    -0.03300
Br2095     Br  0.85374415  0.55814399  0.05564253    -0.04200
Br2096     Br  0.88219255  0.73438201  0.02034403    -0.00200
C2097       C  0.80430577  0.65523949  0.40459429     0.01200
C2098       C  0.82958890  0.64004449  0.38420690     0.04000
C2099       C  0.81830334  0.62836824  0.35700390    -0.12000
C2100       C  0.78164959  0.63125936  0.35023860     0.23300
C2101       C  0.75610304  0.64485051  0.37108280    -0.12600
C2102       C  0.76740083  0.65658642  0.39834595     0.04700
C2103       C  0.77048880  0.61903927  0.32131412     0.27200
C2104       C  0.77047567  0.64350740  0.29604790    -0.13300
C2105       C  0.76775266  0.63022833  0.26754369     0.05300
C2106       C  0.77029531  0.59217777  0.26417617    -0.09300
C2107       C  0.76164346  0.56874601  0.28989252     0.06100
C2108       C  0.76252949  0.58219874  0.31846038    -0.13600
Br2109     Br  0.70580744  0.64747984  0.36199361    -0.05700
Br2110     Br  0.87976611  0.63476475  0.39340298    -0.00100
Br2111     Br  0.75142144  0.66337748  0.23603404     0.00400
Br2112     Br  0.75616900  0.54982018  0.35373478    -0.04000
Br2113     Br  0.73208257  0.67258752  0.42765484     0.00500
Br2114     Br  0.85316136  0.60882734  0.32859980    -0.03300
Br2115     Br  0.77577251  0.69489256  0.30054022    -0.04200
Br2116     Br  0.75177858  0.51762148  0.28678109    -0.00200
C2117       C  0.61713173  0.63687809  0.10879700     0.01200
C2118       C  0.62690104  0.66587713  0.12625152     0.04000
C2119       C  0.61680251  0.66531254  0.15700806    -0.12000
C2120       C  0.59114128  0.64007301  0.16954012     0.23300
C2121       C  0.57686372  0.61469668  0.15112467    -0.12600
C2122       C  0.59222290  0.61063047  0.12213559     0.04700
C2123       C  0.58124488  0.63760479  0.20235677     0.27200
C2124       C  0.59146646  0.60637760  0.21979203    -0.13300
C2125       C  0.57738600  0.60030197  0.24933322     0.05300
C2126       C  0.55725287  0.62803150  0.26349125    -0.09300
C2127       C  0.54978338  0.66079080  0.24669630     0.06100
C2128       C  0.56010963  0.66478305  0.21595595    -0.13600
Br2129     Br  0.53666528  0.58467018  0.16617679    -0.05700
Br2130     Br  0.65129732  0.70848325  0.10846812    -0.00100
Br2131     Br  0.58249166  0.55194455  0.26821246     0.00400
Br2132     Br  0.54408044  0.70690997  0.19233756    -0.04000
Br2133     Br  0.58209647  0.56575140  0.10400195     0.00500
Br2134     Br  0.64017628  0.69751552  0.18229127    -0.03300
Br2135     Br  0.62519882  0.57174116  0.20311868    -0.04200
Br2136     Br  0.02651952  0.70094327  0.26572060    -0.00200
C2137       C  0.62595185  0.59118787  0.00300390     0.01200
C2138       C  0.59114296  0.61350917  0.49654887     0.04000
C2139       C  0.58095485  0.60372965  0.46866529    -0.12000
C2140       C  0.59012070  0.56901531  0.45902991     0.23300
C2141       C  0.60592302  0.54290746  0.47845550    -0.12600
C2142       C  0.61683091  0.55300767  0.50627551     0.04700
C2143       C  0.57976544  0.55973880  0.42936553     0.27200
C2144       C  0.54343370  0.55281272  0.42517883    -0.13300
C2145       C  0.53041897  0.55780231  0.39655769     0.05300
C2146       C  0.55461807  0.56865813  0.37173244    -0.09300
C2147       C  0.59229211  0.56521789  0.37572734     0.06100
C2148       C  0.60467642  0.56342820  0.40480840    -0.13600
Br2149     Br  0.61245627  0.49372701  0.46646960    -0.05700
Br2150     Br  0.57352115  0.65940312  0.51099107    -0.00100
Br2151     Br  0.97848648  0.55398910  0.39353852     0.00400
Br2152     Br  0.65543805  0.56841835  0.41127088    -0.04000
Br2153     Br  0.63085377  0.51607616  0.02893303     0.00500
Br2154     Br  0.55604914  0.63873206  0.44295649    -0.03300
Br2155     Br  0.51096426  0.54146592  0.45956061    -0.04200
Br2156     Br  0.62709201  0.55617940  0.34364553    -0.00200
C2157       C  0.63804869  0.60689120  0.53559384     0.86400
C2158       C  0.67110651  0.58538948  0.54651164    -0.53900
C2159       C  0.68930046  0.60110849  0.56798108     0.09300
C2160       C  0.67548103  0.64060444  0.57329077     0.20200
C2161       C  0.61625063  0.61755037  0.56371090    -0.54600
C2162       C  0.63558913  0.63447874  0.58377812     0.09400
C2163       C  0.65548762  0.64157989  0.52230128    -0.54100
C2164       C  0.67435466  0.66044645  0.54121750     0.10000
H2165       H  0.67922654  0.55893713  0.53930759     0.14500
H2166       H  0.69147388  0.65496237  0.58912796     0.00200
H2167       H  0.58797772  0.61050327  0.56801704     0.14800
H2168       H  0.65243216  0.65102235  0.49915231     0.14600
C2169       C  0.84509363  0.67693490  0.97855436     0.86400
C2170       C  0.82555887  0.65246768  0.95755996    -0.53900
C2171       C  0.81404189  0.67069668  0.93225655     0.09300
C2172       C  0.82118667  0.71199754  0.93073940     0.20200
C2173       C  0.87441884  0.69589602  0.95878471    -0.54600
C2174       C  0.86292371  0.71375667  0.93350660     0.09400
C2175       C  0.81688674  0.70626679  0.98498007    -0.54100
C2176       C  0.80363144  0.72478486  0.96074226     0.10000
H2177       H  0.82069798  0.62363174  0.96165910     0.14500
H2178       H  0.81135376  0.72674234  0.91039265     0.00200
H2179       H  0.90277951  0.69285251  0.96358643     0.14800
H2180       H  0.80581505  0.70971704  0.00752907     0.14600
C2181       C  0.54754886  0.82686972  0.96065276     0.86400
C2182       C  0.56693049  0.84755001  0.93347372    -0.53900
C2183       C  0.58077460  0.82599415  0.91177027     0.09300
C2184       C  0.57673062  0.78503311  0.92080371     0.20200
C2185       C  0.52024772  0.80428194  0.94562948    -0.54600
C2186       C  0.53467823  0.78209950  0.92469834     0.09400
C2187       C  0.57476672  0.80008820  0.97298929    -0.54100
C2188       C  0.59241051  0.77954917  0.95284150     0.10000
H2189       H  0.56488582  0.87691318  0.92965549     0.14500
H2190       H  0.58852532  0.76645302  0.90433247     0.00200
H2191       H  0.49142725  0.80954419  0.94821688     0.14800
H2192       H  0.58308622  0.80137822  0.99579365     0.14600
O2193       O  0.65857337  0.77676790  0.94792576    -0.57900
C2194       C  0.76946347  0.74571171  0.96656660     0.74700
O2195       O  0.70671689  0.80861535  0.53453305    -0.59100
C2196       C  0.62935912  0.76806693  0.96238236     0.74700
C2197       C  0.68877558  0.69617032  0.52831968     0.77000
Cd2198     Cd  0.69863503  0.76455226  0.99361659     1.37500
O2199       O  0.74210360  0.74476277  0.95082711    -0.57900
O2200       O  0.71132462  0.70079283  0.00635686    -0.56800
C2201       C  0.71382678  0.83612345  0.51694910     0.77000
O2202       O  0.68683535  0.72579327  0.54137299    -0.59100
O2203       O  0.76609005  0.75433239  0.49409616    -0.60000
O2204       O  0.63609568  0.76087493  0.48668620    -0.57600
O2205       O  0.70483121  0.83104477  0.99227017    -0.56700
C2206       C  0.79274898  0.56903413  0.73833069     0.86400
C2207       C  0.80890379  0.59558691  0.71288816    -0.53900
C2208       C  0.82626687  0.57854014  0.68988171     0.09300
C2209       C  0.82824587  0.53700947  0.69496385     0.20200
C2210       C  0.77002275  0.54249400  0.72216857    -0.54600
C2211       C  0.78788472  0.52625365  0.69897619     0.09400
C2212       C  0.82575180  0.54717426  0.74795274    -0.54100
C2213       C  0.84492457  0.53077521  0.72591514     0.10000
H2214       H  0.80715644  0.62486873  0.71207296     0.14500
H2215       H  0.84321828  0.52331368  0.67668750     0.00200
H2216       H  0.74091987  0.54076258  0.72626517     0.14800
H2217       H  0.83477636  0.54711030  0.77059853     0.14600
C2218       C  0.78118725  0.91131722  0.52158038     0.86400
C2219       C  0.75842716  0.94004734  0.53711592    -0.53900
C2220       C  0.73231688  0.92688508  0.55728982     0.09300
C2221       C  0.73028720  0.88404322  0.55874213     0.20200
C2222       C  0.79492327  0.88697748  0.54870301    -0.54600
C2223       C  0.76798042  0.87272633  0.56874631     0.09400
C2224       C  0.75473657  0.88657154  0.50788519    -0.54100
C2225       C  0.72897800  0.87104941  0.52653692     0.10000
H2226       H  0.76660499  0.96845918  0.53586008     0.14500
H2227       H  0.70685104  0.87231228  0.57165057     0.00200
H2228       H  0.82290723  0.88325145  0.55328301     0.14800
H2229       H  0.75943559  0.87810981  0.48520567     0.14600
C2230       C  0.87315432  0.84606255  0.76738910     0.86400
C2231       C  0.89515337  0.81378476  0.78060783    -0.53900
C2232       C  0.91794429  0.82303315  0.80205757     0.09300
C2233       C  0.91805370  0.86443198  0.80719121     0.20200
C2234       C  0.85496837  0.86341349  0.79497558    -0.54600
C2235       C  0.87833121  0.87262487  0.81584008     0.09400
C2236       C  0.90332274  0.87176220  0.75536962    -0.54100
C2237       C  0.92513979  0.88381322  0.77591779     0.10000
H2238       H  0.89341101  0.78602749  0.77423911     0.14500
H2239       H  0.93704438  0.87215349  0.82403515     0.00200
H2240       H  0.82587676  0.86631050  0.79834585     0.14800
H2241       H  0.90481962  0.88264607  0.73230689     0.14600
O2242       O  0.98713471  0.00676423  0.70295802    -0.57900
C2243       C  0.88152647  0.51634870  0.73243381     0.74700
O2244       O  0.95102994  0.94107107  0.78829166    -0.59100
C2245       C  0.51673693  0.99225466  0.71044393     0.74700
C2246       C  0.96971795  0.55097463  0.79087380     0.77000
Cd2247     Cd  0.95385037  0.99597146  0.75070803     1.37500
O2248       O  0.90557745  0.50903688  0.71266633    -0.57900
O2249       O  0.96968630  0.55855255  0.76310731    -0.56800
C2250       C  0.94119030  0.92031440  0.76884100     0.77000
O2251       O  0.96075481  0.51877514  0.79971199    -0.59100
O2252       O  0.89104291  0.51302827  0.75905710    -0.57600
O2253       O  0.51918073  0.98290818  0.73782802    -0.57600
O2254       O  0.94159049  0.93396133  0.74234255    -0.56700
C2255       C  0.55632056  0.93966261  0.64797192     0.86400
C2256       C  0.56602960  0.91216303  0.67390498    -0.53900
C2257       C  0.57981628  0.92753609  0.69795999     0.09300
C2258       C  0.58345995  0.96931403  0.69321874     0.20200
C2259       C  0.53068958  0.96585176  0.66368575    -0.54600
C2260       C  0.54408872  0.98156475  0.68738798     0.09400
C2261       C  0.59046775  0.96066421  0.63980555    -0.54100
C2262       C  0.60591055  0.97529160  0.66289828     0.10000
H2263       H  0.56056937  0.88326900  0.67389494     0.14500
H2264       H  0.59456340  0.98295423  0.71205427     0.00200
H2265       H  0.50193371  0.96616498  0.65995049     0.14800
H2266       H  0.60328299  0.96126534  0.61744453     0.14600
O2267       O  0.66613752  0.96351915  0.64517095    -0.57900
C2268       C  0.76617615  0.51412596  0.67444360     0.74700
O2269       O  0.74708561  0.95515733  0.60258629    -0.59100
C2270       C  0.64434438  0.98558116  0.65729748     0.74700
C2271       C  0.70380503  0.57417251  0.59062018     0.77000
Cd2272     Cd  0.71388710  0.00639230  0.62824003     1.37500
O2273       O  0.73502381  0.50098737  0.67979951    -0.57900
O2274       O  0.69213671  0.57195823  0.61757577    -0.56800
C2275       C  0.72421467  0.95044978  0.58302427     0.77000
O2276       O  0.72347479  0.54787712  0.58265548    -0.59100
O2277       O  0.77557332  0.52011710  0.64711111    -0.57600
O2278       O  0.65581791  0.01757328  0.65920427    -0.57600
O2279       O  0.69597252  0.96989904  0.58496774    -0.56700
C2280       C  0.53636907  0.58340734  0.84168146     0.86400
C2281       C  0.00770105  0.55920843  0.83093302    -0.53900
C2282       C  0.98473998  0.57571371  0.81176894     0.09300
C2283       C  0.99194926  0.61742201  0.80596884     0.20200
C2284       C  0.55455641  0.60060511  0.81207279    -0.54600
C2285       C  0.53134082  0.61922219  0.79301134     0.09400
C2286       C  0.01663016  0.61568497  0.85491363    -0.54100
C2287       C  0.99359721  0.63366583  0.83682312     0.10000
H2288       H  0.00910006  0.52975437  0.83508061     0.14500
H2289       H  0.97105251  0.63212508  0.79368266     0.00200
H2290       H  0.58271653  0.59818690  0.80613206     0.14800
H2291       H  0.02204578  0.62480709  0.87680672     0.14600
O2292       O  0.92348060  0.72661919  0.91641970    -0.57900
C2293       C  0.50965657  0.76721718  0.90335738     0.74700
O2294       O  0.97013060  0.69478720  0.82764556    -0.59100
C2295       C  0.89092255  0.72494187  0.90989888     0.74700
C2296       C  0.93342281  0.79477917  0.82274533     0.77000
Cd2297     Cd  0.95322605  0.73883535  0.86773196     1.37500
O2298       O  0.97622090  0.77432254  0.90597940    -0.57900
O2299       O  0.95314929  0.80242702  0.84361667    -0.56800
C2300       C  0.97758621  0.66870722  0.84596445     0.77000
O2301       O  0.92515217  0.76161015  0.82180186    -0.59100
O2302       O  0.01930968  0.74779983  0.88190358    -0.57600
O2303       O  0.88520876  0.73043615  0.88251683    -0.57600
O2304       O  0.97303657  0.67495918  0.87323357    -0.56700
C2305       C  0.84661236  0.84126180  0.74243644     0.01200
C2306       C  0.83621729  0.87297468  0.72504469     0.04000
C2307       C  0.82539232  0.87007620  0.69589382    -0.12000
C2308       C  0.81788202  0.83568110  0.68559512     0.23300
C2309       C  0.82030449  0.80445585  0.70526242    -0.12600
C2310       C  0.83450946  0.80711486  0.73372852     0.04700
C2311       C  0.80095106  0.83444927  0.65632720     0.27200
C2312       C  0.76589485  0.84849865  0.65382012    -0.13300
C2313       C  0.75297385  0.85876842  0.62557392     0.05300
C2314       C  0.77522634  0.85362684  0.59894418    -0.09300
C2315       C  0.80695679  0.83191806  0.60213382     0.06100
C2316       C  0.82058338  0.82394374  0.63061343    -0.13600
Br2317     Br  0.80222227  0.75861981  0.69364141    -0.05700
Br2318     Br  0.83595692  0.92103064  0.74076366    -0.00100
Br2319     Br  0.70500250  0.87983933  0.62701880     0.00400
Br2320     Br  0.86664986  0.79974977  0.63444331    -0.04000
Br2321     Br  0.82794924  0.76640152  0.76252106     0.00500
Br2322     Br  0.82085095  0.91375449  0.66992497    -0.03300
Br2323     Br  0.73679697  0.85613356  0.69018820    -0.04200
Br2324     Br  0.83025544  0.80983447  0.56815345    -0.00200
C2325       C  0.86651152  0.88326056  0.84637989     0.01200
C2326       C  0.86986690  0.91954432  0.85430668     0.04000
C2327       C  0.86352844  0.92851272  0.88423283    -0.12000
C2328       C  0.85110030  0.90174485  0.90615228     0.23300
C2329       C  0.84601098  0.86576434  0.89789480    -0.12600
C2330       C  0.85415099  0.85646563  0.86828901     0.04700
C2331       C  0.83888997  0.91202428  0.93682060     0.27200
C2332       C  0.85931853  0.90267861  0.96181807    -0.13300
C2333       C  0.84425427  0.90640021  0.99118599     0.05300
C2334       C  0.80774721  0.91813602  0.99567807    -0.09300
C2335       C  0.79104898  0.93495308  0.97014610     0.06100
C2336       C  0.80550720  0.92982968  0.94109894    -0.13600
Br2337     Br  0.82662230  0.82935903  0.92703465    -0.05700
Br2338     Br  0.87933555  0.95763490  0.82372100    -0.00100
Br2339     Br  0.87536574  0.91735327  0.52337530     0.00400
Br2340     Br  0.77741574  0.94351213  0.90694624    -0.04000
Br2341     Br  0.84703802  0.80709536  0.85767079     0.00500
Br2342     Br  0.87145035  0.97764430  0.89518867    -0.03300
Br2343     Br  0.90769395  0.88369953  0.95543681    -0.04200
Br2344     Br  0.74533580  0.96090745  0.97357474    -0.00200
C2345       C  0.53268724  0.85017112  0.98569017     0.01200
C2346       C  0.55280753  0.88086661  0.99334672     0.04000
C2347       C  0.54534576  0.90118698  0.51752482    -0.12000
C2348       C  0.51635293  0.88810317  0.53620972     0.23300
C2349       C  0.49530128  0.85952224  0.52798078    -0.12600
C2350       C  0.50604889  0.84052262  0.50275383     0.04700
C2351       C  0.51725032  0.89594988  0.56785896     0.27200
C2352       C  0.54241036  0.87603221  0.58484797    -0.13300
C2353       C  0.55630916  0.89087477  0.60978078     0.05300
C2354       C  0.54174112  0.92393909  0.62028866    -0.09300
C2355       C  0.51793549  0.94474677  0.60164996     0.06100
C2356       C  0.50376830  0.92935784  0.57697426    -0.13600
Br2357     Br  0.95476133  0.84378152  0.55426388    -0.05700
Br2358     Br  0.60234351  0.89000705  0.97860513    -0.00100
Br2359     Br  0.60136590  0.87011093  0.62335978     0.00400
Br2360     Br  0.46969644  0.95604020  0.55265525    -0.04000
Br2361     Br  0.48489234  0.78828953  0.00690436     0.00500
Br2362     Br  0.57334724  0.94114154  0.52962713    -0.03300
Br2363     Br  0.56175634  0.83034727  0.57123459    -0.04200
Br2364     Br  0.51231534  0.99721169  0.60304444    -0.00200
C2365       C  0.58447660  0.90728137  0.72751851     0.01200
C2366       C  0.61473895  0.91422331  0.74435706     0.04000
C2367       C  0.61604234  0.90029050  0.77416326    -0.12000
C2368       C  0.58947916  0.87587685  0.78635368     0.23300
C2369       C  0.56116325  0.86595868  0.76883293    -0.12600
C2370       C  0.55730188  0.88318481  0.74034279     0.04700
C2371       C  0.58867442  0.86392001  0.81855149     0.27200
C2372       C  0.61345853  0.83788733  0.82975390    -0.13300
C2373       C  0.61256525  0.82769043  0.86054147     0.05300
C2374       C  0.58410639  0.83998575  0.87972429    -0.09300
C2375       C  0.55754171  0.86407080  0.86751517     0.06100
C2376       C  0.56196315  0.87830659  0.83791436    -0.13600
Br2377     Br  0.52634598  0.83004240  0.78484681    -0.05700
Br2378     Br  0.65556918  0.94158402  0.72699529    -0.00100
Br2379     Br  0.65130236  0.79798620  0.87606754     0.00400
Br2380     Br  0.53122904  0.91789109  0.82371488    -0.04000
Br2381     Br  0.51208197  0.87644114  0.72173773     0.00500
Br2382     Br  0.65282704  0.91669628  0.79910340    -0.03300
Br2383     Br  0.64801163  0.81562196  0.80273741    -0.04200
Br2384     Br  0.51202954  0.87469055  0.88854960    -0.00200
C2385       C  0.83541187  0.59660619  0.66005355     0.01200
C2386       C  0.80743269  0.60916556  0.64169429     0.04000
C2387       C  0.81535878  0.61962454  0.61147622    -0.12000
C2388       C  0.85106890  0.61752425  0.59941864     0.23300
C2389       C  0.87919257  0.60652334  0.61791733    -0.12600
C2390       C  0.87140246  0.59638811  0.64823793     0.04700
C2391       C  0.85902730  0.62944662  0.56770162     0.27200
C2392       C  0.85560821  0.60517885  0.54498045    -0.13300
C2393       C  0.86126288  0.62234460  0.01498031     0.05300
C2394       C  0.85985180  0.66032633  0.00772802    -0.09300
C2395       C  0.87156089  0.67874235  0.53023357     0.06100
C2396       C  0.86923235  0.66563624  0.56026198    -0.13600
Br2397     Br  0.92833125  0.60545554  0.60154457    -0.05700
Br2398     Br  0.75792238  0.61122691  0.65724513    -0.00100
Br2399     Br  0.87562249  0.58856779  0.98526773     0.00400
Br2400     Br  0.87702189  0.69803990  0.59160562    -0.04000
Br2401     Br  0.91028150  0.58386394  0.67383689     0.00500
Br2402     Br  0.77738160  0.63692533  0.58626359    -0.03300
Br2403     Br  0.84466937  0.55463344  0.55536331    -0.04200
Br2404     Br  0.88669782  0.72871259  0.52136671    -0.00200
C2405       C  0.80181767  0.65181632  0.90630298     0.01200
C2406       C  0.82761073  0.63554578  0.88695255     0.04000
C2407       C  0.81697597  0.62177105  0.86026912    -0.12000
C2408       C  0.78066948  0.62477105  0.85245398     0.23300
C2409       C  0.75464787  0.63977023  0.87223148    -0.12600
C2410       C  0.76509625  0.65231804  0.89951173     0.04700
C2411       C  0.77058480  0.61169566  0.82340622     0.27200
C2412       C  0.76975550  0.63594225  0.79800587    -0.13300
C2413       C  0.76823433  0.62233078  0.76947610     0.05300
C2414       C  0.77300086  0.58446029  0.76606510    -0.09300
C2415       C  0.76594183  0.56060847  0.79188250     0.06100
C2416       C  0.76525168  0.57432516  0.82047238    -0.13600
Br2417     Br  0.70502245  0.64399445  0.86148808    -0.05700
Br2418     Br  0.87772745  0.63208921  0.89665201    -0.00100
Br2419     Br  0.75090535  0.65453136  0.73779070     0.00400
Br2420     Br  0.76073777  0.54171714  0.85575705    -0.04000
Br2421     Br  0.72891631  0.66789711  0.92834010     0.00500
Br2422     Br  0.85237872  0.59940232  0.83389306    -0.03300
Br2423     Br  0.77292208  0.68767867  0.80216875    -0.04200
Br2424     Br  0.76051675  0.50866580  0.78894298    -0.00200
C2425       C  0.62110702  0.63906732  0.61491380     0.01200
C2426       C  0.61802838  0.67399275  0.62630312     0.04000
C2427       C  0.60362510  0.67797421  0.65564326    -0.12000
C2428       C  0.59488688  0.64688367  0.67444464     0.23300
C2429       C  0.59887203  0.61201033  0.66334733    -0.12600
C2430       C  0.60983960  0.60819122  0.63331673     0.04700
C2431       C  0.57683859  0.65001443  0.70453413     0.27200
C2432       C  0.59682161  0.65471820  0.72968699    -0.13300
C2433       C  0.58005829  0.65020021  0.75856001     0.05300
C2434       C  0.54401746  0.63700250  0.76272436    -0.09300
C2435       C  0.52269952  0.63847068  0.73687304     0.06100
C2436       C  0.53942388  0.64474762  0.70812995    -0.13600
Br2437     Br  0.58795159  0.56939844  0.68944888    -0.05700
Br2438     Br  0.63040394  0.71661792  0.60094421    -0.00100
Br2439     Br  0.60555836  0.66686721  0.79162691     0.00400
Br2440     Br  0.51160360  0.64461925  0.67269922    -0.04000
Br2441     Br  0.60652676  0.56069430  0.61747638     0.00500
Br2442     Br  0.59350418  0.72581889  0.66950734    -0.03300
Br2443     Br  0.64754778  0.66590320  0.72446432    -0.04200
Br2444     Br  0.97078746  0.63476503  0.73762330    -0.00200
C2445       C  0.61427959  0.59007969  0.51330611     0.01200
C2446       C  0.60854581  0.61529897  0.98233902     0.04000
C2447       C  0.60295287  0.60463666  0.95362208    -0.12000
C2448       C  0.60920312  0.56827879  0.94664000     0.23300
C2449       C  0.62099573  0.54259225  0.96849066    -0.12600
C2450       C  0.62809955  0.55361870  0.99705878     0.04700
C2451       C  0.59363963  0.55627639  0.91943139     0.27200
C2452       C  0.55640457  0.54997262  0.92039648    -0.13300
C2453       C  0.53804198  0.55308099  0.89396319     0.05300
C2454       C  0.55737734  0.56306351  0.86632078    -0.09300
C2455       C  0.59547819  0.55861467  0.86520712     0.06100
C2456       C  0.61365055  0.55733081  0.89203240    -0.13600
Br2457     Br  0.62568513  0.49210384  0.95929122    -0.05700
Br2458     Br  0.58958683  0.66218710  0.99354029    -0.00100
Br2459     Br  0.98589651  0.54794551  0.89751075     0.00400
Br2460     Br  0.66555594  0.55806823  0.89170704    -0.04000
Br2461     Br  0.62646314  0.51493075  0.53632734     0.00500
Br2462     Br  0.58609274  0.63996504  0.92369109    -0.03300
Br2463     Br  0.53011362  0.54209828  0.95859462    -0.04200
Br2464     Br  0.62236913  0.54647043  0.82931195    -0.00200
loop_ 
_geom_bond_atom_site_label_1 
_geom_bond_atom_site_label_2 
_geom_bond_distance 
_geom_bond_site_symmetry_2 
_ccdc_geom_bond_type 
C1            C2   1.530       .  S
C1            C7   1.510       .  S
C1            C5   1.547       .  S
C1          C289   1.535       .  S
C2            H9   1.080       .  S
C2            C3   1.361       .  D
C3            C4   1.551       .  S
C3          C115   1.479       .  S
C4            C8   1.570       .  S
C4            C6   1.547       .  S
C4           H10   1.107       .  S
C5           H11   1.084       .  S
C5            C6   1.376       .  D
C6          C269   1.516       .  S
C7           H12   1.088   1_554  S
C7            C8   1.351       .  D
C8           C41   1.480       .  S
C13          C14   1.554       .  S
C13          C19   1.524       .  S
C13          C17   1.525       .  S
C13         C238   1.546       .  S
C14          H21   1.079       .  S
C14          C15   1.370       .  D
C15          C16   1.538       .  S
C15         C249   1.483       .  S
C16          C20   1.560       .  S
C16          C18   1.560       .  S
C16          H22   1.111       .  S
C17          H23   1.087       .  S
C17          C18   1.367       .  D
C18         C139   1.495       .  S
C19          H24   1.088       .  S
C19          C20   1.359       .  D
C20          C38   1.495       .  S
C25          C26   1.547       .  S
C25          C31   1.503       .  S
C25          C29   1.519       .  S
C25         C189   1.531       .  S
C26          H33   1.086       .  S
C26          C27   1.372       .  D
C27          C28   1.548       .  S
C27         C218   1.503       .  S
C28          C32   1.585       .  S
C28          C30   1.568       .  S
C28          H34   1.108       .  S
C29          H35   1.084   1_455  S
C29          C30   1.366       .  D
C30         C137   1.499       .  S
C31          H36   1.089       .  S
C31          C32   1.352       .  D
C32          C40   1.508       .  S
O37          C40   1.268       .  A
O37         Cd42   2.627       .  S
C38          O43   1.267       .  A
C38         O355   1.264       .  A
O39          C45   1.265       .  A
O39        Cd350   2.573   1_554  S
C40         O356   1.267       .  A
C41          O46   1.267       .  A
C41         O352   1.263       .  A
Cd42         O49   2.463       .  S
Cd42         O43   2.586       .  S
Cd42         O44   2.424       .  S
Cd42        O347   2.587       .  S
Cd42        O356   2.459       .  S
Cd42        O355   2.422       .  S
Cd42        O354   2.601       .  S
O44         C349   1.267       .  A
C45          C69   1.495       .  S
C45         O357   1.267   1_554  A
O46        Cd350   2.559   1_554  S
O47         C346   1.265       .  A
O47        Cd350   2.437       .  S
O48         C348   1.267       .  A
O48        Cd350   2.478       .  S
O49         C353   1.267       .  A
C50          C51   1.554       .  S
C50          C56   1.528       .  S
C50          C54   1.533       .  S
C50         C258   1.544       .  S
C51          H58   1.079       .  S
C51          C52   1.368       .  D
C52          C53   1.532       .  S
C52         C229   1.481       .  S
C53          C57   1.556       .  S
C53          C55   1.553       .  S
C53          H59   1.111       .  S
C54          H60   1.087       .  S
C54          C55   1.368       .  D
C55         C112   1.491       .  S
C56          H61   1.087       .  S
C56          C57   1.358       .  D
C57          C87   1.492       .  S
C62          C63   1.526       .  S
C62          C68   1.518       .  S
C62          C66   1.573       .  S
C62         C486   1.566   1_554  S
C63          H70   1.088       .  S
C63          C64   1.366       .  D
C64          C65   1.572       .  S
C64         C119   1.506       .  S
C65          C69   1.553       .  S
C65          C67   1.539       .  S
C65          H71   1.096       .  S
C66          H72   1.074       .  S
C66          C67   1.397       .  D
C67         C158   1.530       .  S
C68          H73   1.090   1_554  S
C68          C69   1.343       .  D
C74          C75   1.537       .  S
C74          C80   1.527       .  S
C74          C78   1.550       .  S
C74         C149   1.549       .  S
C75          H82   1.079       .  S
C75          C76   1.372       .  D
C76          C77   1.557       .  S
C76         C140   1.487       .  S
C77          C81   1.554       .  S
C77          C79   1.536       .  S
C77          H83   1.111       .  S
C78          H84   1.086       .  S
C78          C79   1.369       .  D
C79         C169   1.494       .  S
C80          H85   1.087       .  S
C80          C81   1.357       .  D
C81          C94   1.489       .  S
O86        C1321   1.267       .  A
O86         Cd91   2.438       .  S
C87          O96   1.266       .  A
C87          O92   1.265       .  A
O88          C94   1.264       .  A
O88         Cd91   2.564       .  S
C89         C104   1.477       .  S
C89          O97   1.264       .  A
C89        O1318   1.267   1_455  A
C90         C126   1.477       .  S
C90          O95   1.267       .  A
C90          O93   1.266       .  A
Cd91         O98   2.400       .  S
Cd91       O1329   2.501       .  S
Cd91        O712   2.446       .  S
Cd91        O708   2.556       .  S
Cd91        O711   2.405       .  S
Cd91        O709   2.514       .  S
O92        Cd707   2.556       .  S
O93        Cd707   2.514       .  S
C94          O98   1.264       .  A
O95        Cd707   2.405       .  S
O96        Cd707   2.446       .  S
O97       Cd1323   2.501   1_455  S
C99         C100   1.554       .  S
C99         C105   1.510       .  S
C99         C103   1.523       .  S
C99         C198   1.530       .  S
C100        H107   1.083       .  S
C100        C101   1.374       .  D
C101        C102   1.540       .  S
C101        C209   1.505       .  S
C102        C106   1.565       .  S
C102        C104   1.553       .  S
C102        H108   1.108       .  S
C103        H109   1.087   1_455  S
C103        C104   1.359       .  D
C105        H110   1.088       .  S
C105        C106   1.352       .  D
C106        C114   1.479       .  S
O111        C114   1.270       .  A
O111       Cd116   2.479       .  S
C112        O121   1.264       .  A
C112        O117   1.263       .  A
O113        C119   1.269       .  A
O113       Cd116   2.513       .  S
C114        O122   1.265       .  A
C115        O120   1.262       .  A
C115        O118   1.263       .  A
Cd116       O123   2.582       .  S
Cd116       O122   2.492       .  S
Cd116       O737   2.545       .  S
Cd116       O733   2.493       .  S
Cd116       O736   2.440       .  S
Cd116       O734   2.531       .  S
O117       Cd732   2.493       .  S
O118       Cd732   2.531       .  S
C119        O123   1.264       .  A
O120       Cd732   2.440       .  S
O121       Cd732   2.545       .  S
C124        C128   1.555       .  S
C124       C1357   1.519       .  S
C124       C1362   1.519       .  S
C124        C298   1.537       .  S
C125       C1356   1.519       .  S
C125        H132   1.088       .  S
C125        C126   1.358       .  D
C126        C127   1.551       .  S
C127        C131   1.564       .  S
C127       C1361   1.545       .  S
C127        H133   1.110       .  S
C128        H134   1.082       .  S
C128        C129   1.376       .  D
C129       C1359   1.545       .  S
C129        C278   1.502       .  S
C130       C1356   1.519       .  S
C130        H135   1.088       .  S
C130        C131   1.354       .  D
C131        C144   1.491       .  S
O136        C139   1.261       .  A
O136       Cd141   2.455       .  S
C137       O1378   1.269       .  A
C137       O1374   1.264   1_455  A
O138        C144   1.263       .  A
O138       Cd141   2.575       .  S
C139        O147   1.266       .  A
C140        O145   1.265       .  A
C140        O143   1.265       .  A
Cd141       O148   2.438       .  S
Cd141       O147   2.589       .  S
Cd141       O146   2.611       .  S
Cd141       O142   2.400       .  S
Cd141       O145   2.456       .  S
Cd141       O143   2.535       .  S
O142       C1369   1.264       .  A
C144        O148   1.264       .  A
O146       C1369   1.269       .  A
C149        C150   1.424       .  A
C149        C154   1.422       .  A
C150        C151   1.402       .  A
C150       Br162   1.942       .  S
C151        C152   1.409       .  A
C151       Br166   1.938       .  S
C152        C153   1.410       .  A
C152        C155   1.492       .  S
C153        C154   1.418       .  A
C153       Br161   1.930       .  S
C154       Br165   1.926       .  S
C155        C156   1.399       .  A
C155        C160   1.406       .  A
C156        C157   1.410       .  A
C156       Br167   1.944       .  S
C157        C158   1.441       .  A
C157       Br163   1.928       .  S
C158        C159   1.423       .  A
C159        C160   1.414       .  A
C159       Br168   1.932       .  S
C160       Br164   1.927       .  S
C169        C170   1.410       .  A
C169        C174   1.413       .  A
C170        C171   1.411       .  A
C170       Br182   1.922       .  S
C171        C172   1.411       .  A
C171       Br186   1.930       .  S
C172        C173   1.412       .  A
C172        C175   1.495       .  S
C173        C174   1.411       .  A
C173       Br181   1.933       .  S
C174       Br185   1.929       .  S
C175        C176   1.410       .  A
C175        C180   1.405       .  A
C176        C177   1.418       .  A
C176       Br187   1.929       .  S
C177        C178   1.421       .  A
C177       Br491   1.924       .  S
C178        C370   1.559       .  S
C178        C179   1.432       .  A
C179        C180   1.407       .  A
C179       Br188   1.938       .  S
C180       Br184   1.936       .  S
Br183       C485   1.923   1_554  S
C189        C190   1.426       .  A
C189        C502   1.438       .  A
C190        C499   1.396       .  A
C190       Br202   1.946       .  S
C191        C192   1.401       .  A
C191        C498   1.396   1_554  A
C191       Br206   1.936       .  S
C192        C193   1.396   1_455  A
C192        C195   1.471       .  S
C193        C194   1.406   1_655  A
C193      Br1433   1.935       .  S
C194        C497   1.436   1_554  A
C194       Br513   1.939   1_455  S
C195        C196   1.406       .  A
C195        C200   1.397       .  A
C196        C197   1.398       .  A
C196       Br207   1.939       .  S
C197        C198   1.422       .  A
C197       Br203   1.940       .  S
C198        C199   1.433       .  A
C199        C200   1.404       .  A
C199       Br208   1.940       .  S
C200       Br204   1.934   1_455  S
Br201      C1425   1.935       .  S
Br205       C502   1.940   1_655  S
C209        C210   1.421       .  A
C209        C214   1.423       .  A
C210        C211   1.411       .  A
C210       Br222   1.927       .  S
C211        C212   1.407       .  A
C211       Br226   1.932       .  S
C212        C213   1.407       .  A
C212        C215   1.489       .  S
C213        C214   1.407       .  A
C213       Br221   1.935       .  S
C214       Br225   1.935       .  S
C215        C216   1.409       .  A
C215        C220   1.406       .  A
C216        C217   1.413       .  A
C216       Br227   1.930       .  S
C217        C218   1.416       .  A
C217       Br223   1.928       .  S
C218        C219   1.426       .  A
C219        C220   1.404       .  A
C219       Br228   1.938       .  S
C220       Br224   1.938       .  S
C229        C230   1.414       .  A
C229        C234   1.410       .  A
C230        C231   1.404       .  A
C230       Br242   1.932       .  S
C231        C232   1.407       .  A
C231       Br246   1.933       .  S
C232        C233   1.407       .  A
C232        C235   1.476       .  S
C233        C234   1.406       .  A
C233       Br241   1.930       .  S
C234       Br245   1.925       .  S
C235        C236   1.407       .  A
C235        C240   1.403       .  A
C236        C545   1.407       .  A
C236       Br247   1.928       .  S
C237        C238   1.419       .  A
C237        C544   1.410       .  A
C237       Br243   1.930       .  S
C238        C547   1.428       .  A
C239        C240   1.402       .  A
C239        C546   1.425       .  A
C239       Br248   1.937       .  S
C240       Br244   1.932       .  S
C249        C250   1.412       .  A
C249        C254   1.410       .  A
C250        C251   1.405       .  A
C250       Br262   1.931       .  S
C251        C252   1.409       .  A
C251       Br266   1.934       .  S
C252        C253   1.407       .  A
C252        C255   1.481       .  S
C253        C254   1.409       .  A
C253       Br261   1.929       .  S
C254       Br265   1.923       .  S
C255        C256   1.405       .  A
C255        C260   1.404       .  A
C256        C257   1.407       .  A
C256       Br267   1.925       .  S
C257        C258   1.418       .  A
C257       Br263   1.929       .  S
C258        C259   1.424       .  A
C259        C260   1.406       .  A
C259       Br268   1.933       .  S
C260       Br264   1.930       .  S
C269        C270   1.422       .  A
C269        C274   1.426       .  A
C270        C271   1.413       .  A
C270       Br282   1.927       .  S
C271        C272   1.408       .  A
C271       Br286   1.931       .  S
C272        C273   1.409       .  A
C272        C275   1.499       .  S
C273        C274   1.411       .  A
C273       Br281   1.932       .  S
C274       Br285   1.932       .  S
C275        C276   1.410       .  A
C275        C280   1.412       .  A
C276        C277   1.407       .  A
C276       Br287   1.932       .  S
C277        C278   1.420       .  A
C277       Br283   1.935       .  S
C278        C279   1.415       .  A
C279        C280   1.414       .  A
C279      Br1520   1.925       .  S
C280       Br284   1.930       .  S
Br288      C1511   1.925       .  S
C289        C598   1.419   1_554  A
C289        C602   1.423   1_554  A
C290        C291   1.396       .  A
C290        C597   1.420       .  A
C290       Br302   1.939       .  S
C291        C292   1.405       .  A
C291       Br306   1.936       .  S
C292        C293   1.402       .  A
C292        C295   1.467       .  S
C293        C294   1.406       .  A
C293       Br301   1.927   1_545  S
C294        C597   1.419       .  A
C294       Br613   1.929       .  S
C295        C296   1.397       .  A
C295        C300   1.403       .  A
C296        C297   1.398       .  A
C296       Br307   1.937       .  S
C297        C298   1.435       .  A
C297      Br1535   1.944   1_455  S
C298        C299   1.420       .  A
C299        C300   1.405       .  A
C299       Br308   1.927       .  S
C300       Br304   1.930       .  S
Br303      C1529   1.944       .  S
Br305       C602   1.934   1_554  S
C309        C310   1.537       .  S
C309        C315   1.512       .  S
C309        C313   1.534       .  S
C309        C597   1.529       .  S
C310        H317   1.078       .  S
C310        C311   1.365       .  D
C311        C312   1.563       .  S
C311        C423   1.493       .  S
C312        C316   1.578       .  S
C312        C314   1.543       .  S
C312        H318   1.110       .  S
C313        H319   1.087       .  S
C313        C314   1.363       .  D
C314        C577   1.492       .  S
C315        H320   1.088       .  S
C315        C316   1.355       .  D
C316        C349   1.495       .  S
C321        C322   1.552       .  S
C321        C327   1.524       .  S
C321        C325   1.516       .  S
C321        C546   1.537   1_556  S
C322        H329   1.080       .  S
C322        C323   1.370       .  D
C323        C324   1.541       .  S
C323        C557   1.486       .  S
C324        C328   1.563       .  S
C324        C326   1.560       .  S
C324        H330   1.111       .  S
C325        H331   1.087       .  S
C325        C326   1.363       .  D
C326        C447   1.488       .  S
C327        H332   1.088   1_556  S
C327        C328   1.360       .  D
C328        C346   1.495       .  S
C333        C334   1.548       .  S
C333        C339   1.505       .  S
C333        C337   1.525       .  S
C333        C497   1.532       .  S
C334        H341   1.085       .  S
C334        C335   1.370       .  D
C335        C336   1.542       .  S
C335        C526   1.499       .  S
C336        C340   1.581       .  S
C336        C338   1.563       .  S
C336        H342   1.108       .  S
C337        H343   1.085   1_455  S
C337        C338   1.367       .  D
C338        C445   1.498       .  S
C339        H344   1.089       .  S
C339        C340   1.353       .  D
C340        C348   1.505       .  S
O345        C348   1.267       .  A
O345       Cd350   2.610       .  S
C346        O351   1.268       .  A
O347        C353   1.266       .  A
C349        O354   1.268       .  A
Cd350       O357   2.454       .  S
Cd350       O351   2.579       .  S
Cd350       O352   2.426   1_556  S
C353        C377   1.502       .  S
C358        C359   1.557       .  S
C358        C364   1.524       .  S
C358        C362   1.534       .  S
C358        C566   1.548       .  S
C359        H366   1.076       .  S
C359        C360   1.371       .  D
C360        C361   1.531       .  S
C360        C537   1.484       .  S
C361        C365   1.555       .  S
C361        C363   1.550       .  S
C361        H367   1.111       .  S
C362        H368   1.087       .  S
C362        C363   1.370       .  D
C363        C420   1.490       .  S
C364        H369   1.088       .  S
C364        C365   1.357       .  D
C365        C395   1.488       .  S
C370        C371   1.525       .  S
C370        C376   1.522       .  S
C370        C374   1.571       .  S
C371        H378   1.088       .  S
C371        C372   1.363       .  D
C372        C373   1.575       .  S
C372        C427   1.503       .  S
C373        C377   1.555       .  S
C373        C375   1.535       .  S
C373        H379   1.097       .  S
C374        H380   1.074       .  S
C374        C375   1.394       .  D
C375        C466   1.525       .  S
C376        H381   1.089       .  S
C376        C377   1.346       .  D
C382        C383   1.540       .  S
C382        C388   1.527       .  S
C382        C386   1.549       .  S
C382        C457   1.548       .  S
C383        H390   1.080       .  S
C383        C384   1.374       .  D
C384        C385   1.553       .  S
C384        C448   1.483       .  S
C385        C389   1.548       .  S
C385        C387   1.535       .  S
C385        H391   1.111       .  S
C386        H392   1.086       .  S
C386        C387   1.368       .  D
C387        C477   1.493       .  S
C388        H393   1.087       .  S
C388        C389   1.355       .  D
C389        C402   1.483       .  S
O394       C1629   1.268       .  A
O394       Cd399   2.433       .  S
C395        O404   1.264       .  A
C395        O400   1.265       .  A
O396        C402   1.264       .  A
O396       Cd399   2.552       .  S
C397        C412   1.480       .  S
C397       O1626   1.268   1_455  A
C397        O405   1.265       .  A
C398        C434   1.479       .  S
C398        O403   1.267       .  A
C398        O401   1.262       .  A
Cd399       O406   2.384       .  S
Cd399      O1637   2.509       .  S
Cd399      O1020   2.421       .  S
Cd399      O1016   2.560       .  S
Cd399      O1019   2.431       .  S
Cd399      O1017   2.483       .  S
O400      Cd1015   2.560   1_545  S
O401      Cd1015   2.483   1_545  S
C402        O406   1.264       .  A
O403      Cd1015   2.431   1_545  S
O404      Cd1015   2.421   1_545  S
O405      Cd1631   2.509   1_455  S
C407        C408   1.550       .  S
C407        C413   1.507       .  S
C407        C411   1.524       .  S
C407        C506   1.529       .  S
C408        H415   1.083       .  S
C408        C409   1.373       .  D
C409        C410   1.544       .  S
C409        C517   1.500       .  S
C410        C414   1.565       .  S
C410        C412   1.553       .  S
C410        H416   1.109       .  S
C411        H417   1.087       .  S
C411        C412   1.360       .  D
C413        H418   1.089       .  S
C413        C414   1.352       .  D
C414        C422   1.482       .  S
O419        C422   1.266       .  A
O419       Cd424   2.443       .  S
C420        O429   1.267       .  A
C420        O425   1.262       .  A
O421        C427   1.273       .  A
O421       Cd424   2.542       .  S
C422        O430   1.264       .  A
C423        O428   1.263       .  A
C423        O426   1.264       .  A
Cd424       O431   2.548       .  S
Cd424       O430   2.546       .  S
Cd424      O1045   2.545       .  S
Cd424      O1041   2.480       .  S
Cd424      O1044   2.492       .  S
Cd424      O1042   2.559       .  S
O425      Cd1040   2.480       .  S
O426      Cd1040   2.559       .  S
C427        O431   1.264       .  A
O428      Cd1040   2.492       .  S
O429      Cd1040   2.545       .  S
C432       C1665   1.509       .  S
C432       C1670   1.524       .  S
C432        C436   1.562       .  S
C432        C606   1.539       .  S
C433       C1664   1.509       .  S
C433        H440   1.089       .  S
C433        C434   1.355       .  D
C434        C435   1.563       .  S
C435        C439   1.547       .  S
C435       C1669   1.545       .  S
C435        H441   1.094       .  S
C436        H442   1.068       .  S
C436        C437   1.391       .  D
C437       C1667   1.545   1_455  S
C437        C586   1.528       .  S
C438       C1664   1.524       .  S
C438        H443   1.088       .  S
C438        C439   1.350       .  D
C439        C452   1.485       .  S
O444        C447   1.259       .  A
O444       Cd449   2.419       .  S
C445       O1686   1.269       .  A
C445       O1682   1.265   1_455  A
O446        C452   1.263       .  A
O446       Cd449   2.545       .  S
C447        O455   1.264       .  A
C448        O453   1.264       .  A
C448        O451   1.265       .  A
Cd449       O456   2.455       .  S
Cd449       O455   2.590       .  S
Cd449       O454   2.591       .  S
Cd449       O450   2.414       .  S
Cd449       O453   2.458       .  S
Cd449       O451   2.516       .  S
O450       C1677   1.265       .  A
C452        O456   1.263       .  A
O454       C1677   1.269       .  A
C457        C458   1.425       .  A
C457        C462   1.421       .  A
C458        C459   1.400       .  A
C458       Br470   1.942       .  S
C459        C460   1.408       .  A
C459       Br474   1.938       .  S
C460        C461   1.411       .  A
C460        C463   1.490       .  S
C461        C462   1.418       .  A
C461       Br469   1.930       .  S
C462       Br473   1.927       .  S
C463        C464   1.401       .  A
C463        C468   1.406       .  A
C464        C465   1.409       .  A
C464       Br475   1.945       .  S
C465        C466   1.439       .  A
C465       Br471   1.932       .  S
C466        C467   1.423       .  A
C467        C468   1.414       .  A
C467       Br476   1.934       .  S
C468       Br472   1.928       .  S
C477        C478   1.410       .  A
C477        C482   1.412       .  A
C478        C479   1.412       .  A
C478       Br490   1.924       .  S
C479        C480   1.413       .  A
C479       Br494   1.930       .  S
C480        C481   1.412       .  A
C480        C483   1.498       .  S
C481        C482   1.411       .  A
C481       Br489   1.932       .  S
C482       Br493   1.928       .  S
C483        C484   1.410       .  A
C483        C488   1.404       .  A
C484        C485   1.421       .  A
C484       Br495   1.931       .  S
C485        C486   1.424       .  A
C486        C487   1.436       .  A
C487        C488   1.408       .  A
C487       Br496   1.940       .  S
C488       Br492   1.938       .  S
C497        C498   1.428       .  A
C498       Br510   1.945       .  S
C499        C500   1.400       .  A
C499       Br514   1.928       .  S
C500        C501   1.394   1_455  A
C500        C503   1.471       .  S
C501        C502   1.406   1_655  A
C501      Br1741   1.934       .  S
C503        C504   1.407       .  A
C503        C508   1.398       .  A
C504        C505   1.399       .  A
C504       Br515   1.940       .  S
C505        C506   1.422       .  A
C505       Br511   1.941       .  S
C506        C507   1.432       .  A
C507        C508   1.403       .  A
C507       Br516   1.942       .  S
C508       Br512   1.934   1_455  S
Br509      C1733   1.934       .  S
C517        C518   1.419       .  A
C517        C522   1.424       .  A
C518        C519   1.408       .  A
C518       Br530   1.930       .  S
C519        C520   1.406       .  A
C519       Br534   1.933       .  S
C520        C521   1.408       .  A
C520        C523   1.486       .  S
C521        C522   1.407       .  A
C521       Br529   1.936       .  S
C522       Br533   1.936       .  S
C523        C524   1.409       .  A
C523        C528   1.405       .  A
C524        C525   1.411       .  A
C524       Br535   1.930       .  S
C525        C526   1.416       .  A
C525       Br531   1.929       .  S
C526        C527   1.426       .  A
C527        C528   1.402       .  A
C527       Br536   1.939       .  S
C528       Br532   1.937       .  S
C537        C538   1.415       .  A
C537        C542   1.410       .  A
C538        C539   1.406       .  A
C538       Br550   1.932       .  S
C539        C540   1.407       .  A
C539       Br554   1.931       .  S
C540        C541   1.408       .  A
C540        C543   1.482       .  S
C541        C542   1.407       .  A
C541       Br549   1.930       .  S
C542       Br553   1.925       .  S
C543        C544   1.408       .  A
C543        C548   1.403       .  A
C544       Br555   1.930       .  S
C545        C546   1.415       .  A
C545       Br551   1.930   1_554  S
C547        C548   1.404       .  A
C547       Br556   1.938       .  S
C548       Br552   1.934       .  S
C557        C558   1.412       .  A
C557        C562   1.410       .  A
C558        C559   1.406       .  A
C558       Br570   1.931       .  S
C559        C560   1.410       .  A
C559       Br574   1.934       .  S
C560        C561   1.409       .  A
C560        C563   1.485       .  S
C561        C562   1.410       .  A
C561       Br569   1.928       .  S
C562       Br573   1.924       .  S
C563        C564   1.407       .  A
C563        C568   1.405       .  A
C564        C565   1.409       .  A
C564       Br575   1.928       .  S
C565        C566   1.418       .  A
C565       Br571   1.928       .  S
C566        C567   1.426       .  A
C567        C568   1.408       .  A
C567       Br576   1.935       .  S
C568       Br572   1.931       .  S
C577        C578   1.412       .  A
C577        C582   1.417       .  A
C578        C579   1.413       .  A
C578       Br590   1.926       .  S
C579        C580   1.410       .  A
C579       Br594   1.928       .  S
C580        C581   1.407       .  A
C580        C583   1.488       .  S
C581        C582   1.405       .  A
C581       Br589   1.933       .  S
C582       Br593   1.933       .  S
C583        C584   1.403       .  A
C583        C588   1.402       .  A
C584        C585   1.411       .  A
C584       Br595   1.928       .  S
C585        C586   1.425       .  A
C585       Br591   1.935       .  S
C586        C587   1.436       .  A
C587        C588   1.411       .  A
C587      Br1828   1.929   1_455  S
C588       Br592   1.942       .  S
Br596      C1819   1.929       .  S
C598        C599   1.398       .  A
C598       Br610   1.940       .  S
C599        C600   1.406       .  A
C599       Br614   1.935       .  S
C600        C601   1.404       .  A
C600        C603   1.472       .  S
C601        C602   1.408       .  A
C601       Br609   1.930   1_545  S
C603        C604   1.400       .  A
C603        C608   1.403       .  A
C604        C605   1.398       .  A
C604       Br615   1.938       .  S
C605        C606   1.432       .  A
C605      Br1843   1.942   1_455  S
C606        C607   1.419       .  A
C607        C608   1.409       .  A
C607       Br616   1.926       .  S
C608       Br612   1.923       .  S
Br611      C1837   1.942       .  S
C617        C618   1.530       .  S
C617        C623   1.510       .  S
C617        C621   1.547       .  S
C617        C905   1.535       .  S
C618        H625   1.080       .  S
C618        C619   1.361       .  D
C619        C620   1.551       .  S
C619        C731   1.479       .  S
C620        C624   1.570       .  S
C620        C622   1.547       .  S
C620        H626   1.107       .  S
C621        H627   1.084       .  S
C621        C622   1.376       .  D
C622        C885   1.516       .  S
C623        H628   1.088   1_554  S
C623        C624   1.351       .  D
C624        C657   1.480       .  S
C629        C630   1.554       .  S
C629        C635   1.524       .  S
C629        C633   1.526       .  S
C629        C854   1.546       .  S
C630        H637   1.079       .  S
C630        C631   1.370       .  D
C631        C632   1.538       .  S
C631        C865   1.483       .  S
C632        C636   1.560       .  S
C632        C634   1.560       .  S
C632        H638   1.111       .  S
C633        H639   1.087       .  S
C633        C634   1.367       .  D
C634        C755   1.495       .  S
C635        H640   1.088       .  S
C635        C636   1.359       .  D
C636        C654   1.495       .  S
C641        C642   1.547       .  S
C641        C647   1.503       .  S
C641        C645   1.519       .  S
C641        C805   1.531       .  S
C642        H649   1.086       .  S
C642        C643   1.372       .  D
C643        C644   1.548       .  S
C643        C834   1.503       .  S
C644        C648   1.585       .  S
C644        C646   1.568       .  S
C644        H650   1.108       .  S
C645        H651   1.083   1_455  S
C645        C646   1.366       .  D
C646        C753   1.499       .  S
C647        H652   1.089       .  S
C647        C648   1.352       .  D
C648        C656   1.508       .  S
O653        C656   1.268       .  A
O653       Cd658   2.627       .  S
C654        O971   1.264       .  A
C654        O659   1.267       .  A
O655        C661   1.265       .  A
O655       Cd966   2.573   1_554  S
C656        O972   1.267       .  A
C657        O662   1.267       .  A
C657        O968   1.263       .  A
Cd658       O963   2.587       .  S
Cd658       O665   2.463       .  S
Cd658       O972   2.459       .  S
Cd658       O971   2.422       .  S
Cd658       O659   2.586       .  S
Cd658       O970   2.601       .  S
Cd658       O660   2.424       .  S
O660        C965   1.267       .  A
C661        C685   1.495       .  S
C661        O973   1.267   1_554  A
O662       Cd966   2.559   1_554  S
O663        C962   1.265       .  A
O663       Cd966   2.437       .  S
O664        C964   1.267       .  A
O664       Cd966   2.478       .  S
O665        C969   1.267       .  A
C666        C667   1.554       .  S
C666        C672   1.528       .  S
C666        C670   1.533       .  S
C666        C874   1.544       .  S
C667        H674   1.079       .  S
C667        C668   1.368       .  D
C668        C669   1.532       .  S
C668        C845   1.481       .  S
C669        C673   1.556       .  S
C669        C671   1.553       .  S
C669        H675   1.111       .  S
C670        H676   1.087       .  S
C670        C671   1.368       .  D
C671        C728   1.491       .  S
C672        H677   1.087       .  S
C672        C673   1.358       .  D
C673        C703   1.492       .  S
C678        C679   1.526       .  S
C678        C684   1.518       .  S
C678        C682   1.573       .  S
C678       C1102   1.566   1_554  S
C679        H686   1.087       .  S
C679        C680   1.366       .  D
C680        C681   1.572       .  S
C680        C735   1.506       .  S
C681        C685   1.553       .  S
C681        C683   1.539       .  S
C681        H687   1.096       .  S
C682        H688   1.074       .  S
C682        C683   1.397       .  D
C683        C774   1.530       .  S
C684        H689   1.090   1_554  S
C684        C685   1.343       .  D
C690        C691   1.537       .  S
C690        C696   1.527       .  S
C690        C694   1.550       .  S
C690        C765   1.549       .  S
C691        H698   1.079       .  S
C691        C692   1.372       .  D
C692        C693   1.557       .  S
C692        C756   1.487       .  S
C693        C697   1.554       .  S
C693        C695   1.536       .  S
C693        H699   1.111       .  S
C694        H700   1.086       .  S
C694        C695   1.369       .  D
C695        C785   1.494       .  S
C696        H701   1.087       .  S
C696        C697   1.357       .  D
C697        C710   1.489       .  S
O702       C1937   1.267   1_545  A
O702       Cd707   2.438       .  S
C703        O712   1.265       .  A
C703        O708   1.265       .  A
O704        C710   1.264       .  A
O704       Cd707   2.564   1_565  S
C705        C720   1.477       .  S
C705       O1934   1.267   1_465  A
C705        O713   1.264       .  A
C706        C742   1.477       .  S
C706        O711   1.267       .  A
C706        O709   1.266       .  A
Cd707       O714   2.400   1_545  S
Cd707      O1945   2.501   1_545  S
C710        O714   1.264       .  A
O713      Cd1939   2.501   1_465  S
C715        C716   1.554       .  S
C715        C721   1.510       .  S
C715        C719   1.523       .  S
C715        C814   1.530       .  S
C716        H723   1.083       .  S
C716        C717   1.374       .  D
C717        C718   1.540       .  S
C717        C825   1.505       .  S
C718        C722   1.565       .  S
C718        C720   1.553       .  S
C718        H724   1.108       .  S
C719        H725   1.087   1_455  S
C719        C720   1.359       .  D
C721        H726   1.089       .  S
C721        C722   1.352       .  D
C722        C730   1.479       .  S
O727        C730   1.270       .  A
O727       Cd732   2.479   1_565  S
C728        O737   1.264       .  A
C728        O733   1.263       .  A
O729        C735   1.269       .  A
O729       Cd732   2.513   1_565  S
C730        O738   1.265   1_565  A
C731        O736   1.262       .  A
C731        O734   1.263       .  A
Cd732       O739   2.582   1_545  S
Cd732       O738   2.493       .  S
C735        O739   1.264       .  A
C740       C1973   1.519       .  S
C740       C1978   1.519       .  S
C740        C744   1.555       .  S
C740        C914   1.537       .  S
C741       C1972   1.519       .  S
C741        H748   1.088       .  S
C741        C742   1.358       .  D
C742        C743   1.551       .  S
C743        C747   1.564       .  S
C743       C1977   1.545       .  S
C743        H749   1.110       .  S
C744        H750   1.081       .  S
C744        C745   1.376       .  D
C745       C1975   1.545       .  S
C745        C894   1.502       .  S
C746       C1972   1.519       .  S
C746        H751   1.088       .  S
C746        C747   1.354       .  D
C747        C760   1.491       .  S
O752        C755   1.261       .  A
O752       Cd757   2.455       .  S
C753       O1994   1.269       .  A
C753       O1990   1.264   1_455  A
O754        C760   1.263       .  A
O754       Cd757   2.575       .  S
C755        O763   1.266       .  A
C756        O761   1.265       .  A
C756        O759   1.265       .  A
Cd757       O764   2.439       .  S
Cd757       O763   2.589       .  S
Cd757       O762   2.611       .  S
Cd757       O758   2.400       .  S
Cd757       O761   2.456       .  S
Cd757       O759   2.535       .  S
O758       C1985   1.264       .  A
C760        O764   1.264       .  A
O762       C1985   1.269       .  A
C765        C766   1.424       .  A
C765        C770   1.422       .  A
C766        C767   1.402       .  A
C766       Br778   1.942       .  S
C767        C768   1.409       .  A
C767       Br782   1.938       .  S
C768        C769   1.410       .  A
C768        C771   1.492       .  S
C769        C770   1.418       .  A
C769       Br777   1.930       .  S
C770       Br781   1.926       .  S
C771        C772   1.399       .  A
C771        C776   1.406       .  A
C772        C773   1.410       .  A
C772       Br783   1.944       .  S
C773        C774   1.441       .  A
C773       Br779   1.928       .  S
C774        C775   1.423       .  A
C775        C776   1.414       .  A
C775       Br784   1.932       .  S
C776       Br780   1.927       .  S
C785        C786   1.410       .  A
C785        C790   1.413       .  A
C786        C787   1.411       .  A
C786       Br798   1.922       .  S
C787        C788   1.411       .  A
C787       Br802   1.930       .  S
C788        C789   1.412       .  A
C788        C791   1.495       .  S
C789        C790   1.411       .  A
C789       Br797   1.933       .  S
C790       Br801   1.929       .  S
C791        C792   1.410       .  A
C791        C796   1.405       .  A
C792        C793   1.418       .  A
C792       Br803   1.929       .  S
C793        C794   1.421       .  A
C793      Br1107   1.924       .  S
C794        C986   1.559       .  S
C794        C795   1.432       .  A
C795        C796   1.407       .  A
C795       Br804   1.938       .  S
C796       Br800   1.936       .  S
Br799      C1101   1.923   1_554  S
C805        C806   1.426       .  A
C805       C1118   1.438       .  A
C806       C1115   1.396       .  A
C806       Br818   1.946       .  S
C807       C1114   1.396   1_554  A
C807        C808   1.401       .  A
C807       Br822   1.936       .  S
C808        C809   1.396   1_455  A
C808        C811   1.471       .  S
C809        C810   1.406   1_655  A
C809      Br2049   1.935       .  S
C810       C1113   1.436   1_554  A
C810      Br1129   1.939   1_455  S
C811        C812   1.406       .  A
C811        C816   1.397       .  A
C812        C813   1.398       .  A
C812       Br823   1.939       .  S
C813        C814   1.422       .  A
C813       Br819   1.940       .  S
C814        C815   1.433       .  A
C815        C816   1.404       .  A
C815       Br824   1.940   1_565  S
C816       Br820   1.934   1_455  S
Br817      C2041   1.935       .  S
Br821      C1118   1.940   1_655  S
C825        C826   1.421       .  A
C825        C830   1.423       .  A
C826        C827   1.411       .  A
C826       Br838   1.927       .  S
C827        C828   1.407       .  A
C827       Br842   1.932       .  S
C828        C829   1.407       .  A
C828        C831   1.489       .  S
C829        C830   1.407       .  A
C829       Br837   1.935       .  S
C830       Br841   1.935       .  S
C831        C832   1.409       .  A
C831        C836   1.406       .  A
C832        C833   1.413       .  A
C832       Br843   1.930       .  S
C833        C834   1.416       .  A
C833       Br839   1.928       .  S
C834        C835   1.426       .  A
C835        C836   1.404       .  A
C835       Br844   1.938       .  S
C836       Br840   1.938       .  S
C845        C846   1.414       .  A
C845        C850   1.410       .  A
C846        C847   1.404       .  A
C846       Br858   1.932       .  S
C847        C848   1.407       .  A
C847       Br862   1.933       .  S
C848        C849   1.407       .  A
C848        C851   1.476       .  S
C849        C850   1.406       .  A
C849       Br857   1.930       .  S
C850       Br861   1.925       .  S
C851        C852   1.407       .  A
C851        C856   1.403       .  A
C852       C1161   1.407       .  A
C852       Br863   1.928       .  S
C853       C1160   1.410       .  A
C853        C854   1.419       .  A
C853       Br859   1.930       .  S
C854       C1163   1.428       .  A
C855       C1162   1.425       .  A
C855        C856   1.402       .  A
C855       Br864   1.937       .  S
C856       Br860   1.932       .  S
C865        C866   1.412       .  A
C865        C870   1.410       .  A
C866        C867   1.405       .  A
C866       Br878   1.931       .  S
C867        C868   1.409       .  A
C867       Br882   1.934       .  S
C868        C869   1.407       .  A
C868        C871   1.481       .  S
C869        C870   1.409       .  A
C869       Br877   1.929       .  S
C870       Br881   1.923       .  S
C871        C872   1.405       .  A
C871        C876   1.404       .  A
C872        C873   1.407       .  A
C872       Br883   1.925       .  S
C873        C874   1.418       .  A
C873       Br879   1.929       .  S
C874        C875   1.424       .  A
C875        C876   1.406       .  A
C875       Br884   1.933       .  S
C876       Br880   1.930       .  S
C885        C886   1.422       .  A
C885        C890   1.426       .  A
C886        C887   1.413       .  A
C886       Br898   1.927       .  S
C887        C888   1.408       .  A
C887       Br902   1.931       .  S
C888        C889   1.409       .  A
C888        C891   1.499       .  S
C889        C890   1.411       .  A
C889       Br897   1.932       .  S
C890       Br901   1.932       .  S
C891        C892   1.410       .  A
C891        C896   1.412       .  A
C892        C893   1.407       .  A
C892       Br903   1.932       .  S
C893        C894   1.420       .  A
C893       Br899   1.935       .  S
C894        C895   1.415       .  A
C895        C896   1.414       .  A
C895      Br2136   1.925       .  S
C896       Br900   1.930       .  S
Br904      C2127   1.925       .  S
C905       C1214   1.419   1_554  A
C905       C1218   1.423   1_554  A
C906       C1213   1.420       .  A
C906        C907   1.396       .  A
C906       Br918   1.939       .  S
C907        C908   1.405       .  A
C907       Br922   1.936       .  S
C908        C909   1.402       .  A
C908        C911   1.467       .  S
C909        C910   1.406       .  A
C909       Br917   1.927       .  S
C910       C1213   1.419       .  A
C910      Br1229   1.929       .  S
C911        C912   1.397       .  A
C911        C916   1.403       .  A
C912        C913   1.398       .  A
C912       Br923   1.937       .  S
C913        C914   1.435       .  A
C913      Br2151   1.944   1_455  S
C914        C915   1.420       .  A
C915        C916   1.405       .  A
C915       Br924   1.927       .  S
C916       Br920   1.931       .  S
Br919      C2145   1.944       .  S
Br921      C1218   1.934   1_554  S
C925        C926   1.537       .  S
C925        C931   1.512       .  S
C925        C929   1.534       .  S
C925       C1213   1.529       .  S
C926        H933   1.078       .  S
C926        C927   1.365       .  D
C927        C928   1.563       .  S
C927       C1039   1.493       .  S
C928        C932   1.578       .  S
C928        C930   1.543       .  S
C928        H934   1.110       .  S
C929        H935   1.087       .  S
C929        C930   1.363       .  D
C930       C1193   1.492       .  S
C931        H936   1.088       .  S
C931        C932   1.355       .  D
C932        C965   1.495       .  S
C937        C938   1.552       .  S
C937        C943   1.524       .  S
C937        C941   1.516       .  S
C937       C1162   1.537   1_556  S
C938        H945   1.080       .  S
C938        C939   1.370       .  D
C939        C940   1.541       .  S
C939       C1173   1.486       .  S
C940        C944   1.563       .  S
C940        C942   1.560       .  S
C940        H946   1.111       .  S
C941        H947   1.087       .  S
C941        C942   1.363       .  D
C942       C1063   1.488       .  S
C943        H948   1.088   1_556  S
C943        C944   1.360       .  D
C944        C962   1.495       .  S
C949        C950   1.547       .  S
C949        C955   1.505       .  S
C949        C953   1.525       .  S
C949       C1113   1.532       .  S
C950        H957   1.085       .  S
C950        C951   1.370       .  D
C951        C952   1.542       .  S
C951       C1142   1.499       .  S
C952        C956   1.581       .  S
C952        C954   1.563       .  S
C952        H958   1.108       .  S
C953        H959   1.085   1_455  S
C953        C954   1.367       .  D
C954       C1061   1.498       .  S
C955        H960   1.089       .  S
C955        C956   1.353       .  D
C956        C964   1.505       .  S
O961        C964   1.267       .  A
O961       Cd966   2.610       .  S
C962        O967   1.268       .  A
O963        C969   1.266       .  A
C965        O970   1.268       .  A
Cd966       O973   2.454       .  S
Cd966       O967   2.579       .  S
Cd966       O968   2.426   1_556  S
C969        C993   1.502       .  S
C974        C975   1.557       .  S
C974        C980   1.524       .  S
C974        C978   1.534       .  S
C974       C1182   1.548       .  S
C975        H982   1.076       .  S
C975        C976   1.371       .  D
C976        C977   1.531       .  S
C976       C1153   1.484       .  S
C977        C981   1.555       .  S
C977        C979   1.550       .  S
C977        H983   1.111       .  S
C978        H984   1.087       .  S
C978        C979   1.370       .  D
C979       C1036   1.490       .  S
C980        H985   1.088       .  S
C980        C981   1.357       .  D
C981       C1011   1.488       .  S
C986        C987   1.525       .  S
C986        C992   1.522       .  S
C986        C990   1.571       .  S
C987        H994   1.088       .  S
C987        C988   1.363       .  D
C988        C989   1.575       .  S
C988       C1043   1.503       .  S
C989        C993   1.555       .  S
C989        C991   1.535       .  S
C989        H995   1.097       .  S
C990        H996   1.074       .  S
C990        C991   1.394       .  D
C991       C1082   1.525       .  S
C992        H997   1.089       .  S
C992        C993   1.346       .  D
C998        C999   1.540       .  S
C998       C1004   1.527       .  S
C998       C1002   1.549       .  S
C998       C1073   1.548       .  S
C999       H1006   1.080       .  S
C999       C1000   1.374       .  D
C1000      C1001   1.553       .  S
C1000      C1064   1.483       .  S
C1001      C1005   1.548       .  S
C1001      C1003   1.535       .  S
C1001      H1007   1.111       .  S
C1002      H1008   1.086       .  S
C1002      C1003   1.368       .  D
C1003      C1093   1.493       .  S
C1004      H1009   1.087       .  S
C1004      C1005   1.355       .  D
C1005      C1018   1.483       .  S
O1010      C2245   1.268   1_545  A
O1010     Cd1015   2.433   1_545  S
C1011      O1020   1.264       .  A
C1011      O1016   1.265       .  A
O1012      C1018   1.264       .  A
O1012     Cd1015   2.552       .  S
C1013      C1028   1.480       .  S
C1013      O2242   1.268   1_465  A
C1013      O1021   1.265       .  A
C1014      C1050   1.479       .  S
C1014      O1019   1.267       .  A
C1014      O1017   1.262       .  A
Cd1015     O1022   2.385       .  S
Cd1015     O2253   2.509       .  S
C1018      O1022   1.264       .  A
O1021     Cd2247   2.509   1_455  S
C1023      C1024   1.550       .  S
C1023      C1029   1.507       .  S
C1023      C1027   1.524       .  S
C1023      C1122   1.529       .  S
C1024      H1031   1.083       .  S
C1024      C1025   1.374       .  D
C1025      C1026   1.544       .  S
C1025      C1133   1.500       .  S
C1026      C1030   1.565       .  S
C1026      C1028   1.553       .  S
C1026      H1032   1.109       .  S
C1027      H1033   1.087       .  S
C1027      C1028   1.360       .  D
C1029      H1034   1.089       .  S
C1029      C1030   1.352       .  D
C1030      C1038   1.482       .  S
O1035      C1038   1.266       .  A
O1035     Cd1040   2.443   1_565  S
C1036      O1045   1.267       .  A
C1036      O1041   1.262       .  A
O1037      C1043   1.273       .  A
O1037     Cd1040   2.542   1_565  S
C1038      O1046   1.264   1_565  A
C1039      O1044   1.263       .  A
C1039      O1042   1.264       .  A
Cd1040     O1047   2.548   1_545  S
Cd1040     O1046   2.546       .  S
C1043      O1047   1.264       .  A
C1048      C2281   1.509       .  S
C1048      C2286   1.524       .  S
C1048      C1052   1.562       .  S
C1048      C1222   1.539       .  S
C1049      C2280   1.509       .  S
C1049      H1056   1.089       .  S
C1049      C1050   1.355       .  D
C1050      C1051   1.563       .  S
C1051      C1055   1.547       .  S
C1051      C2285   1.545       .  S
C1051      H1057   1.094       .  S
C1052      H1058   1.068       .  S
C1052      C1053   1.391       .  D
C1053      C2283   1.545   1_455  S
C1053      C1202   1.528       .  S
C1054      C2280   1.524       .  S
C1054      H1059   1.088       .  S
C1054      C1055   1.350       .  D
C1055      C1068   1.485       .  S
O1060      C1063   1.259       .  A
O1060     Cd1065   2.419       .  S
C1061      O2302   1.269       .  A
C1061      O2298   1.265   1_455  A
O1062      C1068   1.263       .  A
O1062     Cd1065   2.545       .  S
C1063      O1071   1.264       .  A
C1064      O1069   1.264       .  A
C1064      O1067   1.265       .  A
Cd1065     O1072   2.455       .  S
Cd1065     O1071   2.590       .  S
Cd1065     O1070   2.591       .  S
Cd1065     O1066   2.414       .  S
Cd1065     O1069   2.458       .  S
Cd1065     O1067   2.516       .  S
O1066      C2293   1.265       .  A
C1068      O1072   1.263       .  A
O1070      C2293   1.269       .  A
C1073      C1074   1.425       .  A
C1073      C1078   1.421       .  A
C1074      C1075   1.400       .  A
C1074     Br1086   1.942       .  S
C1075      C1076   1.408       .  A
C1075     Br1090   1.938       .  S
C1076      C1077   1.411       .  A
C1076      C1079   1.490       .  S
C1077      C1078   1.418       .  A
C1077     Br1085   1.930       .  S
C1078     Br1089   1.927       .  S
C1079      C1080   1.401       .  A
C1079      C1084   1.406       .  A
C1080      C1081   1.409       .  A
C1080     Br1091   1.945       .  S
C1081      C1082   1.439       .  A
C1081     Br1087   1.932       .  S
C1082      C1083   1.423       .  A
C1083      C1084   1.414       .  A
C1083     Br1092   1.934       .  S
C1084     Br1088   1.928       .  S
C1093      C1094   1.410       .  A
C1093      C1098   1.412       .  A
C1094      C1095   1.412       .  A
C1094     Br1106   1.924       .  S
C1095      C1096   1.413       .  A
C1095     Br1110   1.930       .  S
C1096      C1097   1.412       .  A
C1096      C1099   1.498       .  S
C1097      C1098   1.411       .  A
C1097     Br1105   1.932       .  S
C1098     Br1109   1.928       .  S
C1099      C1100   1.410       .  A
C1099      C1104   1.404       .  A
C1100      C1101   1.421       .  A
C1100     Br1111   1.931       .  S
C1101      C1102   1.424       .  A
C1102      C1103   1.436       .  A
C1103      C1104   1.408       .  A
C1103     Br1112   1.940       .  S
C1104     Br1108   1.938       .  S
C1113      C1114   1.428       .  A
C1114     Br1126   1.945       .  S
C1115      C1116   1.400       .  A
C1115     Br1130   1.927       .  S
C1116      C1117   1.394   1_455  A
C1116      C1119   1.471       .  S
C1117      C1118   1.406   1_655  A
C1117     Br2357   1.934       .  S
C1119      C1120   1.407       .  A
C1119      C1124   1.398       .  A
C1120      C1121   1.399       .  A
C1120     Br1131   1.940       .  S
C1121      C1122   1.422       .  A
C1121     Br1127   1.941       .  S
C1122      C1123   1.432       .  A
C1123      C1124   1.403       .  A
C1123     Br1132   1.942       .  S
C1124     Br1128   1.934   1_455  S
Br1125     C2349   1.934       .  S
C1133      C1134   1.419       .  A
C1133      C1138   1.424       .  A
C1134      C1135   1.408       .  A
C1134     Br1146   1.930       .  S
C1135      C1136   1.406       .  A
C1135     Br1150   1.933       .  S
C1136      C1137   1.408       .  A
C1136      C1139   1.486       .  S
C1137      C1138   1.407       .  A
C1137     Br1145   1.936       .  S
C1138     Br1149   1.936       .  S
C1139      C1140   1.409       .  A
C1139      C1144   1.405       .  A
C1140      C1141   1.411       .  A
C1140     Br1151   1.930       .  S
C1141      C1142   1.416       .  A
C1141     Br1147   1.929       .  S
C1142      C1143   1.426       .  A
C1143      C1144   1.402       .  A
C1143     Br1152   1.939       .  S
C1144     Br1148   1.937       .  S
C1153      C1154   1.415       .  A
C1153      C1158   1.410       .  A
C1154      C1155   1.406       .  A
C1154     Br1166   1.932       .  S
C1155      C1156   1.407       .  A
C1155     Br1170   1.931       .  S
C1156      C1157   1.408       .  A
C1156      C1159   1.482       .  S
C1157      C1158   1.407       .  A
C1157     Br1165   1.930       .  S
C1158     Br1169   1.925       .  S
C1159      C1160   1.408       .  A
C1159      C1164   1.403       .  A
C1160     Br1171   1.930       .  S
C1161      C1162   1.415       .  A
C1161     Br1167   1.930   1_554  S
C1163      C1164   1.404       .  A
C1163     Br1172   1.938       .  S
C1164     Br1168   1.934       .  S
C1173      C1174   1.412       .  A
C1173      C1178   1.410       .  A
C1174      C1175   1.406       .  A
C1174     Br1186   1.931       .  S
C1175      C1176   1.410       .  A
C1175     Br1190   1.934       .  S
C1176      C1177   1.409       .  A
C1176      C1179   1.485       .  S
C1177      C1178   1.410       .  A
C1177     Br1185   1.928       .  S
C1178     Br1189   1.924       .  S
C1179      C1180   1.407       .  A
C1179      C1184   1.405       .  A
C1180      C1181   1.409       .  A
C1180     Br1191   1.928       .  S
C1181      C1182   1.418       .  A
C1181     Br1187   1.928       .  S
C1182      C1183   1.426       .  A
C1183      C1184   1.408       .  A
C1183     Br1192   1.935       .  S
C1184     Br1188   1.931       .  S
C1193      C1194   1.412       .  A
C1193      C1198   1.417       .  A
C1194      C1195   1.413       .  A
C1194     Br1206   1.926       .  S
C1195      C1196   1.410       .  A
C1195     Br1210   1.928       .  S
C1196      C1197   1.407       .  A
C1196      C1199   1.488       .  S
C1197      C1198   1.405       .  A
C1197     Br1205   1.933       .  S
C1198     Br1209   1.933       .  S
C1199      C1200   1.403       .  A
C1199      C1204   1.402       .  A
C1200      C1201   1.411       .  A
C1200     Br1211   1.928       .  S
C1201      C1202   1.425       .  A
C1201     Br1207   1.935       .  S
C1202      C1203   1.436       .  A
C1203      C1204   1.411       .  A
C1203     Br2444   1.929   1_455  S
C1204     Br1208   1.942       .  S
Br1212     C2435   1.929       .  S
C1214      C1215   1.398       .  A
C1214     Br1226   1.940       .  S
C1215      C1216   1.406       .  A
C1215     Br1230   1.935       .  S
C1216      C1217   1.404       .  A
C1216      C1219   1.472       .  S
C1217      C1218   1.408       .  A
C1217     Br1225   1.930       .  S
C1219      C1220   1.400       .  A
C1219      C1224   1.403       .  A
C1220      C1221   1.398       .  A
C1220     Br1231   1.938       .  S
C1221      C1222   1.432       .  A
C1221     Br2459   1.942   1_455  S
C1222      C1223   1.419       .  A
C1223      C1224   1.409       .  A
C1223     Br1232   1.926       .  S
C1224     Br1228   1.923       .  S
Br1227     C2453   1.942       .  S
C1233      C1234   1.530       .  S
C1233      C1239   1.510       .  S
C1233      C1237   1.546       .  S
C1233      C1521   1.535       .  S
C1234      H1241   1.080       .  S
C1234      C1235   1.361       .  D
C1235      C1236   1.551       .  S
C1235      C1347   1.479       .  S
C1236      C1240   1.570       .  S
C1236      C1238   1.547       .  S
C1236      H1242   1.107       .  S
C1237      H1243   1.084       .  S
C1237      C1238   1.376       .  D
C1238      C1501   1.516       .  S
C1239      H1244   1.088   1_554  S
C1239      C1240   1.351       .  D
C1240      C1273   1.480       .  S
C1245      C1246   1.554       .  S
C1245      C1251   1.524       .  S
C1245      C1249   1.525       .  S
C1245      C1470   1.546       .  S
C1246      H1253   1.079       .  S
C1246      C1247   1.370       .  D
C1247      C1248   1.538       .  S
C1247      C1481   1.483       .  S
C1248      C1252   1.560       .  S
C1248      C1250   1.560       .  S
C1248      H1254   1.111       .  S
C1249      H1255   1.087       .  S
C1249      C1250   1.367       .  D
C1250      C1371   1.495       .  S
C1251      H1256   1.088       .  S
C1251      C1252   1.359       .  D
C1252      C1270   1.495       .  S
C1257      C1258   1.547       .  S
C1257      C1263   1.503       .  S
C1257      C1261   1.519       .  S
C1257      C1421   1.531       .  S
C1258      H1265   1.086       .  S
C1258      C1259   1.372       .  D
C1259      C1260   1.548       .  S
C1259      C1450   1.503       .  S
C1260      C1264   1.585       .  S
C1260      C1262   1.568       .  S
C1260      H1266   1.108       .  S
C1261      H1267   1.084       .  S
C1261      C1262   1.366       .  D
C1262      C1369   1.499       .  S
C1263      H1268   1.089       .  S
C1263      C1264   1.352       .  D
C1264      C1272   1.508       .  S
O1269      C1272   1.268       .  A
O1269     Cd1274   2.627       .  S
C1270      O1587   1.264       .  A
C1270      O1275   1.267       .  A
O1271      C1277   1.265       .  A
O1271     Cd1582   2.573   1_554  S
C1272      O1588   1.267       .  A
C1273      O1278   1.267       .  A
C1273      O1584   1.263       .  A
Cd1274     O1579   2.587       .  S
Cd1274     O1281   2.463       .  S
Cd1274     O1588   2.459       .  S
Cd1274     O1587   2.422       .  S
Cd1274     O1275   2.586       .  S
Cd1274     O1586   2.601       .  S
Cd1274     O1276   2.424       .  S
O1276      C1581   1.267       .  A
C1277      C1301   1.495       .  S
C1277      O1589   1.267   1_554  A
O1278     Cd1582   2.559   1_554  S
O1279      C1578   1.265       .  A
O1279     Cd1582   2.437       .  S
O1280      C1580   1.267       .  A
O1280     Cd1582   2.478       .  S
O1281      C1585   1.267       .  A
C1282      C1283   1.554       .  S
C1282      C1288   1.528       .  S
C1282      C1286   1.533       .  S
C1282      C1490   1.544       .  S
C1283      H1290   1.079       .  S
C1283      C1284   1.368       .  D
C1284      C1285   1.532       .  S
C1284      C1461   1.481       .  S
C1285      C1289   1.556       .  S
C1285      C1287   1.553       .  S
C1285      H1291   1.111       .  S
C1286      H1292   1.087       .  S
C1286      C1287   1.368       .  D
C1287      C1344   1.491       .  S
C1288      H1293   1.087       .  S
C1288      C1289   1.358       .  D
C1289      C1319   1.492       .  S
C1294      C1295   1.526       .  S
C1294      C1300   1.518       .  S
C1294      C1298   1.573       .  S
C1294      C1718   1.566   1_554  S
C1295      H1302   1.087       .  S
C1295      C1296   1.366       .  D
C1296      C1297   1.572       .  S
C1296      C1351   1.506       .  S
C1297      C1301   1.553       .  S
C1297      C1299   1.539       .  S
C1297      H1303   1.096       .  S
C1298      H1304   1.074       .  S
C1298      C1299   1.397       .  D
C1299      C1390   1.530       .  S
C1300      H1305   1.090   1_554  S
C1300      C1301   1.343       .  D
C1306      C1307   1.537       .  S
C1306      C1312   1.527       .  S
C1306      C1310   1.550       .  S
C1306      C1381   1.549       .  S
C1307      H1314   1.079       .  S
C1307      C1308   1.372       .  D
C1308      C1309   1.557       .  S
C1308      C1372   1.487       .  S
C1309      C1313   1.554       .  S
C1309      C1311   1.536       .  S
C1309      H1315   1.111       .  S
C1310      H1316   1.086       .  S
C1310      C1311   1.369       .  D
C1311      C1401   1.494       .  S
C1312      H1317   1.087       .  S
C1312      C1313   1.357       .  D
C1313      C1326   1.489       .  S
O1318     Cd1323   2.438       .  S
C1319      O1328   1.265       .  A
C1319      O1324   1.265       .  A
O1320      C1326   1.264       .  A
O1320     Cd1323   2.564       .  S
C1321      C1336   1.477       .  S
C1321      O1329   1.264       .  A
C1322      C1358   1.477       .  S
C1322      O1327   1.267       .  A
C1322      O1325   1.266       .  A
Cd1323     O1330   2.400       .  S
Cd1323     O1944   2.446       .  S
Cd1323     O1940   2.556       .  S
Cd1323     O1943   2.405       .  S
Cd1323     O1941   2.514       .  S
O1324     Cd1939   2.556       .  S
O1325     Cd1939   2.514       .  S
C1326      O1330   1.264       .  A
O1327     Cd1939   2.405       .  S
O1328     Cd1939   2.446       .  S
C1331      C1332   1.554       .  S
C1331      C1337   1.510       .  S
C1331      C1335   1.523       .  S
C1331      C1430   1.530       .  S
C1332      H1339   1.083       .  S
C1332      C1333   1.374       .  D
C1333      C1334   1.540       .  S
C1333      C1441   1.505       .  S
C1334      C1338   1.565       .  S
C1334      C1336   1.553       .  S
C1334      H1340   1.108       .  S
C1335      H1341   1.087       .  S
C1335      C1336   1.359       .  D
C1337      H1342   1.089       .  S
C1337      C1338   1.352       .  D
C1338      C1346   1.479       .  S
O1343      C1346   1.270       .  A
O1343     Cd1348   2.479       .  S
C1344      O1353   1.264       .  A
C1344      O1349   1.263       .  A
O1345      C1351   1.269       .  A
O1345     Cd1348   2.513       .  S
C1346      O1354   1.265       .  A
C1347      O1352   1.262       .  A
C1347      O1350   1.263       .  A
Cd1348     O1355   2.582       .  S
Cd1348     O1354   2.493       .  S
Cd1348     O1969   2.545       .  S
Cd1348     O1965   2.493       .  S
Cd1348     O1968   2.440       .  S
Cd1348     O1966   2.532       .  S
O1349     Cd1964   2.493       .  S
O1350     Cd1964   2.532       .  S
C1351      O1355   1.264       .  A
O1352     Cd1964   2.440       .  S
O1353     Cd1964   2.545       .  S
C1356      C1360   1.555       .  S
C1356      C1530   1.537       .  S
C1357      H1364   1.088       .  S
C1357      C1358   1.358   1_455  D
C1358      C1359   1.551   1_655  S
C1359      C1363   1.564   1_455  S
C1359      H1365   1.110   1_455  S
C1360      H1366   1.082       .  S
C1360      C1361   1.376       .  D
C1361      C1510   1.502       .  S
C1362      H1367   1.088       .  S
C1362      C1363   1.354   1_455  D
C1363      C1376   1.491       .  S
O1368      C1371   1.261       .  A
O1368     Cd1373   2.455       .  S
O1370      C1376   1.263       .  A
O1370     Cd1373   2.575       .  S
C1371      O1379   1.266       .  A
C1372      O1377   1.265       .  A
C1372      O1375   1.265       .  A
Cd1373     O1380   2.438       .  S
Cd1373     O1379   2.588       .  S
Cd1373     O1378   2.611   1_655  S
Cd1373     O1374   2.400       .  S
Cd1373     O1377   2.456       .  S
Cd1373     O1375   2.535       .  S
C1376      O1380   1.264       .  A
C1381      C1382   1.424       .  A
C1381      C1386   1.422       .  A
C1382      C1383   1.402       .  A
C1382     Br1394   1.942       .  S
C1383      C1384   1.409       .  A
C1383     Br1398   1.938       .  S
C1384      C1385   1.410       .  A
C1384      C1387   1.492       .  S
C1385      C1386   1.418       .  A
C1385     Br1393   1.930       .  S
C1386     Br1397   1.926       .  S
C1387      C1388   1.399       .  A
C1387      C1392   1.406       .  A
C1388      C1389   1.410       .  A
C1388     Br1399   1.944       .  S
C1389      C1390   1.441       .  A
C1389     Br1395   1.928       .  S
C1390      C1391   1.423       .  A
C1391      C1392   1.414       .  A
C1391     Br1400   1.932       .  S
C1392     Br1396   1.927       .  S
C1401      C1402   1.410       .  A
C1401      C1406   1.413       .  A
C1402      C1403   1.411       .  A
C1402     Br1414   1.922       .  S
C1403      C1404   1.411       .  A
C1403     Br1418   1.930       .  S
C1404      C1405   1.412       .  A
C1404      C1407   1.495       .  S
C1405      C1406   1.411       .  A
C1405     Br1413   1.933       .  S
C1406     Br1417   1.929       .  S
C1407      C1408   1.410       .  A
C1407      C1412   1.405       .  A
C1408      C1409   1.418       .  A
C1408     Br1419   1.929       .  S
C1409      C1410   1.421       .  A
C1409     Br1723   1.924       .  S
C1410      C1602   1.559       .  S
C1410      C1411   1.432       .  A
C1411      C1412   1.407       .  A
C1411     Br1420   1.938       .  S
C1412     Br1416   1.936       .  S
Br1415     C1717   1.923   1_554  S
C1421      C1422   1.426       .  A
C1421      C1734   1.438       .  A
C1422      C1731   1.396       .  A
C1422     Br1434   1.946       .  S
C1423      C1730   1.396   1_554  A
C1423      C1424   1.401       .  A
C1423     Br1438   1.936       .  S
C1424      C1425   1.396       .  A
C1424      C1427   1.471       .  S
C1425      C1426   1.406       .  A
C1426      C1729   1.436   1_554  A
C1426     Br1745   1.939       .  S
C1427      C1428   1.406       .  A
C1427      C1432   1.397       .  A
C1428      C1429   1.398       .  A
C1428     Br1439   1.939       .  S
C1429      C1430   1.422       .  A
C1429     Br1435   1.940       .  S
C1430      C1431   1.433       .  A
C1431      C1432   1.404       .  A
C1431     Br1440   1.940       .  S
C1432     Br1436   1.934       .  S
Br1437     C1734   1.940       .  S
C1441      C1442   1.421       .  A
C1441      C1446   1.423       .  A
C1442      C1443   1.411       .  A
C1442     Br1454   1.927       .  S
C1443      C1444   1.407       .  A
C1443     Br1458   1.932       .  S
C1444      C1445   1.407       .  A
C1444      C1447   1.489       .  S
C1445      C1446   1.407       .  A
C1445     Br1453   1.935       .  S
C1446     Br1457   1.935       .  S
C1447      C1448   1.409       .  A
C1447      C1452   1.406       .  A
C1448      C1449   1.413       .  A
C1448     Br1459   1.930       .  S
C1449      C1450   1.416       .  A
C1449     Br1455   1.928       .  S
C1450      C1451   1.426       .  A
C1451      C1452   1.404       .  A
C1451     Br1460   1.938       .  S
C1452     Br1456   1.938       .  S
C1461      C1462   1.414       .  A
C1461      C1466   1.410       .  A
C1462      C1463   1.404       .  A
C1462     Br1474   1.932       .  S
C1463      C1464   1.407       .  A
C1463     Br1478   1.933       .  S
C1464      C1465   1.407       .  A
C1464      C1467   1.476       .  S
C1465      C1466   1.406       .  A
C1465     Br1473   1.930       .  S
C1466     Br1477   1.925       .  S
C1467      C1468   1.407       .  A
C1467      C1472   1.403       .  A
C1468      C1777   1.407       .  A
C1468     Br1479   1.928       .  S
C1469      C1776   1.410       .  A
C1469      C1470   1.419       .  A
C1469     Br1475   1.930       .  S
C1470      C1779   1.428       .  A
C1471      C1778   1.425       .  A
C1471      C1472   1.402       .  A
C1471     Br1480   1.937       .  S
C1472     Br1476   1.932       .  S
C1481      C1482   1.412       .  A
C1481      C1486   1.410       .  A
C1482      C1483   1.405       .  A
C1482     Br1494   1.931       .  S
C1483      C1484   1.409       .  A
C1483     Br1498   1.934       .  S
C1484      C1485   1.407       .  A
C1484      C1487   1.481       .  S
C1485      C1486   1.409       .  A
C1485     Br1493   1.929       .  S
C1486     Br1497   1.923       .  S
C1487      C1488   1.405       .  A
C1487      C1492   1.404       .  A
C1488      C1489   1.407       .  A
C1488     Br1499   1.925       .  S
C1489      C1490   1.418       .  A
C1489     Br1495   1.929       .  S
C1490      C1491   1.424       .  A
C1491      C1492   1.406       .  A
C1491     Br1500   1.933       .  S
C1492     Br1496   1.930       .  S
C1501      C1502   1.422       .  A
C1501      C1506   1.426       .  A
C1502      C1503   1.413       .  A
C1502     Br1514   1.927       .  S
C1503      C1504   1.408       .  A
C1503     Br1518   1.931       .  S
C1504      C1505   1.409       .  A
C1504      C1507   1.499       .  S
C1505      C1506   1.411       .  A
C1505     Br1513   1.932       .  S
C1506     Br1517   1.932       .  S
C1507      C1508   1.410       .  A
C1507      C1512   1.412       .  A
C1508      C1509   1.407       .  A
C1508     Br1519   1.932       .  S
C1509      C1510   1.420       .  A
C1509     Br1515   1.935       .  S
C1510      C1511   1.415       .  A
C1511      C1512   1.414       .  A
C1512     Br1516   1.930       .  S
C1521      C1830   1.419   1_554  A
C1521      C1834   1.423   1_554  A
C1522      C1829   1.420       .  A
C1522      C1523   1.396       .  A
C1522     Br1534   1.939       .  S
C1523      C1524   1.405       .  A
C1523     Br1538   1.936       .  S
C1524      C1525   1.402       .  A
C1524      C1527   1.467       .  S
C1525      C1526   1.406       .  A
C1525     Br1533   1.927   1_545  S
C1526      C1829   1.419       .  A
C1526     Br1845   1.929       .  S
C1527      C1528   1.397       .  A
C1527      C1532   1.403       .  A
C1528      C1529   1.398       .  A
C1528     Br1539   1.937       .  S
C1529      C1530   1.435       .  A
C1530      C1531   1.420       .  A
C1531      C1532   1.405       .  A
C1531     Br1540   1.927       .  S
C1532     Br1536   1.930       .  S
Br1537     C1834   1.934   1_554  S
C1541      C1542   1.537       .  S
C1541      C1547   1.512       .  S
C1541      C1545   1.534       .  S
C1541      C1829   1.529       .  S
C1542      H1549   1.078       .  S
C1542      C1543   1.365       .  D
C1543      C1544   1.563       .  S
C1543      C1655   1.493       .  S
C1544      C1548   1.578       .  S
C1544      C1546   1.543       .  S
C1544      H1550   1.110       .  S
C1545      H1551   1.087       .  S
C1545      C1546   1.363       .  D
C1546      C1809   1.492       .  S
C1547      H1552   1.088       .  S
C1547      C1548   1.355       .  D
C1548      C1581   1.495       .  S
C1553      C1554   1.552       .  S
C1553      C1559   1.524       .  S
C1553      C1557   1.516       .  S
C1553      C1778   1.537   1_556  S
C1554      H1561   1.080       .  S
C1554      C1555   1.370       .  D
C1555      C1556   1.541       .  S
C1555      C1789   1.486       .  S
C1556      C1560   1.563       .  S
C1556      C1558   1.560       .  S
C1556      H1562   1.111       .  S
C1557      H1563   1.087       .  S
C1557      C1558   1.363       .  D
C1558      C1679   1.488       .  S
C1559      H1564   1.088   1_556  S
C1559      C1560   1.360       .  D
C1560      C1578   1.495       .  S
C1565      C1566   1.547       .  S
C1565      C1571   1.505       .  S
C1565      C1569   1.525       .  S
C1565      C1729   1.532       .  S
C1566      H1573   1.085       .  S
C1566      C1567   1.370       .  D
C1567      C1568   1.542       .  S
C1567      C1758   1.499       .  S
C1568      C1572   1.581       .  S
C1568      C1570   1.563       .  S
C1568      H1574   1.108       .  S
C1569      H1575   1.085       .  S
C1569      C1570   1.367       .  D
C1570      C1677   1.498       .  S
C1571      H1576   1.089       .  S
C1571      C1572   1.353       .  D
C1572      C1580   1.505       .  S
O1577      C1580   1.267       .  A
O1577     Cd1582   2.610       .  S
C1578      O1583   1.268       .  A
O1579      C1585   1.266       .  A
C1581      O1586   1.268       .  A
Cd1582     O1589   2.454       .  S
Cd1582     O1583   2.579       .  S
Cd1582     O1584   2.426   1_556  S
C1585      C1609   1.502       .  S
C1590      C1591   1.557       .  S
C1590      C1596   1.524       .  S
C1590      C1594   1.534       .  S
C1590      C1798   1.548       .  S
C1591      H1598   1.076       .  S
C1591      C1592   1.371       .  D
C1592      C1593   1.531       .  S
C1592      C1769   1.484       .  S
C1593      C1597   1.555       .  S
C1593      C1595   1.550       .  S
C1593      H1599   1.111       .  S
C1594      H1600   1.087       .  S
C1594      C1595   1.371       .  D
C1595      C1652   1.490       .  S
C1596      H1601   1.088       .  S
C1596      C1597   1.357       .  D
C1597      C1627   1.488       .  S
C1602      C1603   1.525       .  S
C1602      C1608   1.522       .  S
C1602      C1606   1.571       .  S
C1603      H1610   1.088       .  S
C1603      C1604   1.363       .  D
C1604      C1605   1.575       .  S
C1604      C1659   1.503       .  S
C1605      C1609   1.555       .  S
C1605      C1607   1.535       .  S
C1605      H1611   1.097       .  S
C1606      H1612   1.074       .  S
C1606      C1607   1.394       .  D
C1607      C1698   1.525       .  S
C1608      H1613   1.089       .  S
C1608      C1609   1.346       .  D
C1614      C1615   1.540       .  S
C1614      C1620   1.527       .  S
C1614      C1618   1.549       .  S
C1614      C1689   1.549       .  S
C1615      H1622   1.080       .  S
C1615      C1616   1.374       .  D
C1616      C1617   1.553       .  S
C1616      C1680   1.483       .  S
C1617      C1621   1.548       .  S
C1617      C1619   1.535       .  S
C1617      H1623   1.111       .  S
C1618      H1624   1.086       .  S
C1618      C1619   1.368       .  D
C1619      C1709   1.493       .  S
C1620      H1625   1.087       .  S
C1620      C1621   1.355       .  D
C1621      C1634   1.483       .  S
O1626     Cd1631   2.433       .  S
C1627      O1636   1.264       .  A
C1627      O1632   1.265       .  A
O1628      C1634   1.264       .  A
O1628     Cd1631   2.552       .  S
C1629      C1644   1.480       .  S
C1629      O1637   1.265       .  A
C1630      C1666   1.479       .  S
C1630      O1635   1.267       .  A
C1630      O1633   1.262       .  A
Cd1631     O1638   2.385       .  S
Cd1631     O2252   2.421       .  S
Cd1631     O2248   2.560       .  S
Cd1631     O2251   2.431       .  S
Cd1631     O2249   2.483       .  S
O1632     Cd2247   2.560   1_545  S
O1633     Cd2247   2.483   1_545  S
C1634      O1638   1.264       .  A
O1635     Cd2247   2.431   1_545  S
O1636     Cd2247   2.421   1_545  S
C1639      C1640   1.550       .  S
C1639      C1645   1.507       .  S
C1639      C1643   1.524       .  S
C1639      C1738   1.529       .  S
C1640      H1647   1.083       .  S
C1640      C1641   1.373       .  D
C1641      C1642   1.544       .  S
C1641      C1749   1.500       .  S
C1642      C1646   1.565       .  S
C1642      C1644   1.553       .  S
C1642      H1648   1.109       .  S
C1643      H1649   1.087       .  S
C1643      C1644   1.360       .  D
C1645      H1650   1.089       .  S
C1645      C1646   1.352       .  D
C1646      C1654   1.482       .  S
O1651      C1654   1.266       .  A
O1651     Cd1656   2.443       .  S
C1652      O1661   1.267       .  A
C1652      O1657   1.262       .  A
O1653      C1659   1.273       .  A
O1653     Cd1656   2.542       .  S
C1654      O1662   1.264       .  A
C1655      O1660   1.263       .  A
C1655      O1658   1.264       .  A
Cd1656     O1663   2.548       .  S
Cd1656     O1662   2.546       .  S
Cd1656     O2277   2.545       .  S
Cd1656     O2273   2.480       .  S
Cd1656     O2276   2.492       .  S
Cd1656     O2274   2.559       .  S
O1657     Cd2272   2.480       .  S
O1658     Cd2272   2.559       .  S
C1659      O1663   1.264       .  A
O1660     Cd2272   2.492       .  S
O1661     Cd2272   2.545       .  S
C1664      C1668   1.562       .  S
C1664      C1838   1.539       .  S
C1665      H1672   1.089       .  S
C1665      C1666   1.355   1_455  D
C1666      C1667   1.563       .  S
C1667      C1671   1.547       .  S
C1667      H1673   1.094       .  S
C1668      H1674   1.068       .  S
C1668      C1669   1.391       .  D
C1669      C1818   1.528       .  S
C1670      H1675   1.088       .  S
C1670      C1671   1.350   1_455  D
C1671      C1684   1.485       .  S
O1676      C1679   1.259       .  A
O1676     Cd1681   2.419       .  S
O1678      C1684   1.263       .  A
O1678     Cd1681   2.545       .  S
C1679      O1687   1.264       .  A
C1680      O1685   1.264       .  A
C1680      O1683   1.265       .  A
Cd1681     O1688   2.455       .  S
Cd1681     O1687   2.590       .  S
Cd1681     O1686   2.591   1_655  S
Cd1681     O1682   2.414       .  S
Cd1681     O1685   2.458       .  S
Cd1681     O1683   2.516       .  S
C1684      O1688   1.263       .  A
C1689      C1690   1.425       .  A
C1689      C1694   1.421       .  A
C1690      C1691   1.401       .  A
C1690     Br1702   1.942       .  S
C1691      C1692   1.408       .  A
C1691     Br1706   1.938       .  S
C1692      C1693   1.411       .  A
C1692      C1695   1.490       .  S
C1693      C1694   1.418       .  A
C1693     Br1701   1.930       .  S
C1694     Br1705   1.927       .  S
C1695      C1696   1.401       .  A
C1695      C1700   1.406       .  A
C1696      C1697   1.409       .  A
C1696     Br1707   1.945       .  S
C1697      C1698   1.439       .  A
C1697     Br1703   1.932       .  S
C1698      C1699   1.423       .  A
C1699      C1700   1.414       .  A
C1699     Br1708   1.934       .  S
C1700     Br1704   1.928       .  S
C1709      C1710   1.410       .  A
C1709      C1714   1.412       .  A
C1710      C1711   1.412       .  A
C1710     Br1722   1.924       .  S
C1711      C1712   1.413       .  A
C1711     Br1726   1.930       .  S
C1712      C1713   1.412       .  A
C1712      C1715   1.498       .  S
C1713      C1714   1.411       .  A
C1713     Br1721   1.932       .  S
C1714     Br1725   1.928       .  S
C1715      C1716   1.410       .  A
C1715      C1720   1.404       .  A
C1716      C1717   1.421       .  A
C1716     Br1727   1.931       .  S
C1717      C1718   1.424       .  A
C1718      C1719   1.436       .  A
C1719      C1720   1.408       .  A
C1719     Br1728   1.940       .  S
C1720     Br1724   1.938       .  S
C1729      C1730   1.428       .  A
C1730     Br1742   1.945       .  S
C1731      C1732   1.400       .  A
C1731     Br1746   1.928       .  S
C1732      C1733   1.394       .  A
C1732      C1735   1.471       .  S
C1733      C1734   1.406       .  A
C1735      C1736   1.407       .  A
C1735      C1740   1.398       .  A
C1736      C1737   1.399       .  A
C1736     Br1747   1.940       .  S
C1737      C1738   1.422       .  A
C1737     Br1743   1.941       .  S
C1738      C1739   1.432       .  A
C1739      C1740   1.403       .  A
C1739     Br1748   1.942       .  S
C1740     Br1744   1.934       .  S
C1749      C1750   1.419       .  A
C1749      C1754   1.424       .  A
C1750      C1751   1.408       .  A
C1750     Br1762   1.930       .  S
C1751      C1752   1.406       .  A
C1751     Br1766   1.933       .  S
C1752      C1753   1.408       .  A
C1752      C1755   1.486       .  S
C1753      C1754   1.407       .  A
C1753     Br1761   1.936       .  S
C1754     Br1765   1.936       .  S
C1755      C1756   1.409       .  A
C1755      C1760   1.405       .  A
C1756      C1757   1.411       .  A
C1756     Br1767   1.930       .  S
C1757      C1758   1.416       .  A
C1757     Br1763   1.929       .  S
C1758      C1759   1.426       .  A
C1759      C1760   1.402       .  A
C1759     Br1768   1.939       .  S
C1760     Br1764   1.937       .  S
C1769      C1770   1.415       .  A
C1769      C1774   1.410       .  A
C1770      C1771   1.406       .  A
C1770     Br1782   1.932       .  S
C1771      C1772   1.407       .  A
C1771     Br1786   1.931       .  S
C1772      C1773   1.408       .  A
C1772      C1775   1.482       .  S
C1773      C1774   1.407       .  A
C1773     Br1781   1.930       .  S
C1774     Br1785   1.925       .  S
C1775      C1776   1.408       .  A
C1775      C1780   1.403       .  A
C1776     Br1787   1.930       .  S
C1777      C1778   1.415       .  A
C1777     Br1783   1.930   1_554  S
C1779      C1780   1.404       .  A
C1779     Br1788   1.938       .  S
C1780     Br1784   1.934       .  S
C1789      C1790   1.412       .  A
C1789      C1794   1.410       .  A
C1790      C1791   1.406       .  A
C1790     Br1802   1.931       .  S
C1791      C1792   1.410       .  A
C1791     Br1806   1.934       .  S
C1792      C1793   1.409       .  A
C1792      C1795   1.485       .  S
C1793      C1794   1.410       .  A
C1793     Br1801   1.928       .  S
C1794     Br1805   1.924       .  S
C1795      C1796   1.407       .  A
C1795      C1800   1.405       .  A
C1796      C1797   1.409       .  A
C1796     Br1807   1.928       .  S
C1797      C1798   1.418       .  A
C1797     Br1803   1.928       .  S
C1798      C1799   1.426       .  A
C1799      C1800   1.408       .  A
C1799     Br1808   1.935       .  S
C1800     Br1804   1.931       .  S
C1809      C1810   1.412       .  A
C1809      C1814   1.417       .  A
C1810      C1811   1.413       .  A
C1810     Br1822   1.926       .  S
C1811      C1812   1.410       .  A
C1811     Br1826   1.928       .  S
C1812      C1813   1.407       .  A
C1812      C1815   1.488       .  S
C1813      C1814   1.405       .  A
C1813     Br1821   1.933       .  S
C1814     Br1825   1.932       .  S
C1815      C1816   1.403       .  A
C1815      C1820   1.402       .  A
C1816      C1817   1.411       .  A
C1816     Br1827   1.928       .  S
C1817      C1818   1.425       .  A
C1817     Br1823   1.935       .  S
C1818      C1819   1.437       .  A
C1819      C1820   1.411       .  A
C1820     Br1824   1.942       .  S
C1830      C1831   1.398       .  A
C1830     Br1842   1.940       .  S
C1831      C1832   1.406       .  A
C1831     Br1846   1.935       .  S
C1832      C1833   1.404       .  A
C1832      C1835   1.472       .  S
C1833      C1834   1.408       .  A
C1833     Br1841   1.930   1_545  S
C1835      C1836   1.400       .  A
C1835      C1840   1.403       .  A
C1836      C1837   1.398       .  A
C1836     Br1847   1.938       .  S
C1837      C1838   1.432       .  A
C1838      C1839   1.419       .  A
C1839      C1840   1.409       .  A
C1839     Br1848   1.926       .  S
C1840     Br1844   1.923       .  S
C1849      C1850   1.530       .  S
C1849      C1855   1.510       .  S
C1849      C1853   1.547       .  S
C1849      C2137   1.535       .  S
C1850      H1857   1.080       .  S
C1850      C1851   1.361       .  D
C1851      C1852   1.551       .  S
C1851      C1963   1.479       .  S
C1852      C1856   1.570       .  S
C1852      C1854   1.547       .  S
C1852      H1858   1.107       .  S
C1853      H1859   1.084       .  S
C1853      C1854   1.376       .  D
C1854      C2117   1.516       .  S
C1855      H1860   1.088   1_554  S
C1855      C1856   1.351       .  D
C1856      C1889   1.480       .  S
C1861      C1862   1.554       .  S
C1861      C1867   1.524       .  S
C1861      C1865   1.525       .  S
C1861      C2086   1.546       .  S
C1862      H1869   1.079       .  S
C1862      C1863   1.370       .  D
C1863      C1864   1.538       .  S
C1863      C2097   1.483       .  S
C1864      C1868   1.560       .  S
C1864      C1866   1.560       .  S
C1864      H1870   1.111       .  S
C1865      H1871   1.087       .  S
C1865      C1866   1.367       .  D
C1866      C1987   1.495       .  S
C1867      H1872   1.088       .  S
C1867      C1868   1.359       .  D
C1868      C1886   1.495       .  S
C1873      C1874   1.547       .  S
C1873      C1879   1.503       .  S
C1873      C1877   1.519       .  S
C1873      C2037   1.531       .  S
C1874      H1881   1.086       .  S
C1874      C1875   1.372       .  D
C1875      C1876   1.548       .  S
C1875      C2066   1.503       .  S
C1876      C1880   1.585       .  S
C1876      C1878   1.568       .  S
C1876      H1882   1.108       .  S
C1877      H1883   1.083       .  S
C1877      C1878   1.366       .  D
C1878      C1985   1.499       .  S
C1879      H1884   1.089       .  S
C1879      C1880   1.352       .  D
C1880      C1888   1.508       .  S
O1885      C1888   1.268       .  A
O1885     Cd1890   2.627       .  S
C1886      O2203   1.264       .  A
C1886      O1891   1.267       .  A
O1887      C1893   1.265       .  A
O1887     Cd2198   2.573   1_554  S
C1888      O2204   1.267       .  A
C1889      O1894   1.267       .  A
C1889      O2200   1.263       .  A
Cd1890     O2195   2.587       .  S
Cd1890     O1897   2.463       .  S
Cd1890     O2204   2.459       .  S
Cd1890     O2203   2.422       .  S
Cd1890     O1891   2.586       .  S
Cd1890     O2202   2.601       .  S
Cd1890     O1892   2.424       .  S
O1892      C2197   1.267       .  A
C1893      C1917   1.495       .  S
C1893      O2205   1.267   1_554  A
O1894     Cd2198   2.559   1_554  S
O1895      C2194   1.265       .  A
O1895     Cd2198   2.437       .  S
O1896      C2196   1.267       .  A
O1896     Cd2198   2.478       .  S
O1897      C2201   1.267       .  A
C1898      C1899   1.554       .  S
C1898      C1904   1.528       .  S
C1898      C1902   1.533       .  S
C1898      C2106   1.544       .  S
C1899      H1906   1.078       .  S
C1899      C1900   1.368       .  D
C1900      C1901   1.532       .  S
C1900      C2077   1.481       .  S
C1901      C1905   1.556       .  S
C1901      C1903   1.553       .  S
C1901      H1907   1.111       .  S
C1902      H1908   1.087       .  S
C1902      C1903   1.368       .  D
C1903      C1960   1.491       .  S
C1904      H1909   1.087       .  S
C1904      C1905   1.358       .  D
C1905      C1935   1.492       .  S
C1910      C1911   1.526       .  S
C1910      C1916   1.518       .  S
C1910      C1914   1.573       .  S
C1910      C2334   1.566   1_554  S
C1911      H1918   1.088       .  S
C1911      C1912   1.366       .  D
C1912      C1913   1.572       .  S
C1912      C1967   1.506       .  S
C1913      C1917   1.553       .  S
C1913      C1915   1.539       .  S
C1913      H1919   1.096       .  S
C1914      H1920   1.074       .  S
C1914      C1915   1.397       .  D
C1915      C2006   1.530       .  S
C1916      H1921   1.090   1_554  S
C1916      C1917   1.343       .  D
C1922      C1923   1.537       .  S
C1922      C1928   1.527       .  S
C1922      C1926   1.550       .  S
C1922      C1997   1.549       .  S
C1923      H1930   1.079       .  S
C1923      C1924   1.372       .  D
C1924      C1925   1.557       .  S
C1924      C1988   1.487       .  S
C1925      C1929   1.554       .  S
C1925      C1927   1.536       .  S
C1925      H1931   1.111       .  S
C1926      H1932   1.086       .  S
C1926      C1927   1.369       .  D
C1927      C2017   1.494       .  S
C1928      H1933   1.087       .  S
C1928      C1929   1.357       .  D
C1929      C1942   1.489       .  S
O1934     Cd1939   2.438       .  S
C1935      O1944   1.265       .  A
C1935      O1940   1.265       .  A
O1936      C1942   1.264       .  A
O1936     Cd1939   2.564   1_565  S
C1937      C1952   1.477       .  S
C1937      O1945   1.264       .  A
C1938      C1974   1.477       .  S
C1938      O1943   1.267       .  A
C1938      O1941   1.266       .  A
Cd1939     O1946   2.400   1_545  S
C1942      O1946   1.264       .  A
C1947      C1948   1.554       .  S
C1947      C1953   1.510       .  S
C1947      C1951   1.523       .  S
C1947      C2046   1.530       .  S
C1948      H1955   1.083       .  S
C1948      C1949   1.374       .  D
C1949      C1950   1.540       .  S
C1949      C2057   1.505       .  S
C1950      C1954   1.565       .  S
C1950      C1952   1.553       .  S
C1950      H1956   1.108       .  S
C1951      H1957   1.087       .  S
C1951      C1952   1.359       .  D
C1953      H1958   1.088       .  S
C1953      C1954   1.352       .  D
C1954      C1962   1.479       .  S
O1959      C1962   1.270       .  A
O1959     Cd1964   2.479   1_565  S
C1960      O1969   1.264       .  A
C1960      O1965   1.263       .  A
O1961      C1967   1.269       .  A
O1961     Cd1964   2.513   1_565  S
C1962      O1970   1.265   1_565  A
C1963      O1968   1.262       .  A
C1963      O1966   1.263       .  A
Cd1964     O1971   2.582   1_545  S
Cd1964     O1970   2.493       .  S
C1967      O1971   1.264       .  A
C1972      C1976   1.555       .  S
C1972      C2146   1.537       .  S
C1973      H1980   1.088       .  S
C1973      C1974   1.358   1_455  D
C1974      C1975   1.551   1_655  S
C1975      C1979   1.564   1_455  S
C1975      H1981   1.110   1_455  S
C1976      H1982   1.081       .  S
C1976      C1977   1.376       .  D
C1977      C2126   1.502       .  S
C1978      H1983   1.088       .  S
C1978      C1979   1.354   1_455  D
C1979      C1992   1.491       .  S
O1984      C1987   1.261       .  A
O1984     Cd1989   2.455       .  S
O1986      C1992   1.263       .  A
O1986     Cd1989   2.575       .  S
C1987      O1995   1.266       .  A
C1988      O1993   1.265       .  A
C1988      O1991   1.265       .  A
Cd1989     O1996   2.438       .  S
Cd1989     O1995   2.589       .  S
Cd1989     O1994   2.611   1_655  S
Cd1989     O1990   2.400       .  S
Cd1989     O1993   2.456       .  S
Cd1989     O1991   2.535       .  S
C1992      O1996   1.264       .  A
C1997      C1998   1.424       .  A
C1997      C2002   1.422       .  A
C1998      C1999   1.402       .  A
C1998     Br2010   1.942       .  S
C1999      C2000   1.409       .  A
C1999     Br2014   1.938       .  S
C2000      C2001   1.410       .  A
C2000      C2003   1.492       .  S
C2001      C2002   1.418       .  A
C2001     Br2009   1.930       .  S
C2002     Br2013   1.926       .  S
C2003      C2004   1.399       .  A
C2003      C2008   1.406       .  A
C2004      C2005   1.410       .  A
C2004     Br2015   1.944       .  S
C2005      C2006   1.441       .  A
C2005     Br2011   1.928       .  S
C2006      C2007   1.423       .  A
C2007      C2008   1.414       .  A
C2007     Br2016   1.932       .  S
C2008     Br2012   1.927       .  S
C2017      C2018   1.410       .  A
C2017      C2022   1.413       .  A
C2018      C2019   1.411       .  A
C2018     Br2030   1.922       .  S
C2019      C2020   1.411       .  A
C2019     Br2034   1.930       .  S
C2020      C2021   1.412       .  A
C2020      C2023   1.495       .  S
C2021      C2022   1.411       .  A
C2021     Br2029   1.933       .  S
C2022     Br2033   1.929       .  S
C2023      C2024   1.410       .  A
C2023      C2028   1.405       .  A
C2024      C2025   1.418       .  A
C2024     Br2035   1.929       .  S
C2025      C2026   1.421       .  A
C2025     Br2339   1.924       .  S
C2026      C2218   1.559       .  S
C2026      C2027   1.432       .  A
C2027      C2028   1.407       .  A
C2027     Br2036   1.938       .  S
C2028     Br2032   1.936       .  S
Br2031     C2333   1.923   1_554  S
C2037      C2038   1.426       .  A
C2037      C2350   1.438       .  A
C2038      C2347   1.396       .  A
C2038     Br2050   1.946       .  S
C2039      C2346   1.396   1_554  A
C2039      C2040   1.401       .  A
C2039     Br2054   1.936       .  S
C2040      C2041   1.396       .  A
C2040      C2043   1.471       .  S
C2041      C2042   1.406       .  A
C2042      C2345   1.436   1_554  A
C2042     Br2361   1.939       .  S
C2043      C2044   1.406       .  A
C2043      C2048   1.397       .  A
C2044      C2045   1.398       .  A
C2044     Br2055   1.939       .  S
C2045      C2046   1.422       .  A
C2045     Br2051   1.940       .  S
C2046      C2047   1.433       .  A
C2047      C2048   1.404       .  A
C2047     Br2056   1.940   1_565  S
C2048     Br2052   1.934       .  S
Br2053     C2350   1.940       .  S
C2057      C2058   1.421       .  A
C2057      C2062   1.423       .  A
C2058      C2059   1.411       .  A
C2058     Br2070   1.927       .  S
C2059      C2060   1.407       .  A
C2059     Br2074   1.932       .  S
C2060      C2061   1.407       .  A
C2060      C2063   1.489       .  S
C2061      C2062   1.407       .  A
C2061     Br2069   1.935       .  S
C2062     Br2073   1.935       .  S
C2063      C2064   1.409       .  A
C2063      C2068   1.406       .  A
C2064      C2065   1.413       .  A
C2064     Br2075   1.930       .  S
C2065      C2066   1.416       .  A
C2065     Br2071   1.928       .  S
C2066      C2067   1.426       .  A
C2067      C2068   1.404       .  A
C2067     Br2076   1.938       .  S
C2068     Br2072   1.938       .  S
C2077      C2078   1.414       .  A
C2077      C2082   1.410       .  A
C2078      C2079   1.404       .  A
C2078     Br2090   1.932       .  S
C2079      C2080   1.407       .  A
C2079     Br2094   1.933       .  S
C2080      C2081   1.407       .  A
C2080      C2083   1.476       .  S
C2081      C2082   1.406       .  A
C2081     Br2089   1.930       .  S
C2082     Br2093   1.925       .  S
C2083      C2084   1.407       .  A
C2083      C2088   1.403       .  A
C2084      C2393   1.407       .  A
C2084     Br2095   1.928       .  S
C2085      C2392   1.410       .  A
C2085      C2086   1.419       .  A
C2085     Br2091   1.930       .  S
C2086      C2395   1.428       .  A
C2087      C2394   1.425       .  A
C2087      C2088   1.402       .  A
C2087     Br2096   1.937       .  S
C2088     Br2092   1.932       .  S
C2097      C2098   1.412       .  A
C2097      C2102   1.410       .  A
C2098      C2099   1.405       .  A
C2098     Br2110   1.931       .  S
C2099      C2100   1.409       .  A
C2099     Br2114   1.934       .  S
C2100      C2101   1.407       .  A
C2100      C2103   1.481       .  S
C2101      C2102   1.409       .  A
C2101     Br2109   1.929       .  S
C2102     Br2113   1.923       .  S
C2103      C2104   1.405       .  A
C2103      C2108   1.404       .  A
C2104      C2105   1.407       .  A
C2104     Br2115   1.925       .  S
C2105      C2106   1.418       .  A
C2105     Br2111   1.929       .  S
C2106      C2107   1.424       .  A
C2107      C2108   1.406       .  A
C2107     Br2116   1.933       .  S
C2108     Br2112   1.930       .  S
C2117      C2118   1.422       .  A
C2117      C2122   1.426       .  A
C2118      C2119   1.413       .  A
C2118     Br2130   1.927       .  S
C2119      C2120   1.408       .  A
C2119     Br2134   1.931       .  S
C2120      C2121   1.409       .  A
C2120      C2123   1.499       .  S
C2121      C2122   1.411       .  A
C2121     Br2129   1.932       .  S
C2122     Br2133   1.932       .  S
C2123      C2124   1.410       .  A
C2123      C2128   1.412       .  A
C2124      C2125   1.407       .  A
C2124     Br2135   1.932       .  S
C2125      C2126   1.420       .  A
C2125     Br2131   1.935       .  S
C2126      C2127   1.415       .  A
C2127      C2128   1.414       .  A
C2128     Br2132   1.930       .  S
C2137      C2446   1.419   1_554  A
C2137      C2450   1.423   1_554  A
C2138      C2445   1.420       .  A
C2138      C2139   1.396       .  A
C2138     Br2150   1.939       .  S
C2139      C2140   1.405       .  A
C2139     Br2154   1.936       .  S
C2140      C2141   1.402       .  A
C2140      C2143   1.467       .  S
C2141      C2142   1.406       .  A
C2141     Br2149   1.927       .  S
C2142      C2445   1.419       .  A
C2142     Br2461   1.929       .  S
C2143      C2144   1.397       .  A
C2143      C2148   1.403       .  A
C2144      C2145   1.398       .  A
C2144     Br2155   1.937       .  S
C2145      C2146   1.435       .  A
C2146      C2147   1.420       .  A
C2147      C2148   1.405       .  A
C2147     Br2156   1.927       .  S
C2148     Br2152   1.930       .  S
Br2153     C2450   1.934   1_554  S
C2157      C2158   1.537       .  S
C2157      C2163   1.512       .  S
C2157      C2161   1.534       .  S
C2157      C2445   1.529       .  S
C2158      H2165   1.079       .  S
C2158      C2159   1.365       .  D
C2159      C2160   1.563       .  S
C2159      C2271   1.493       .  S
C2160      C2164   1.578       .  S
C2160      C2162   1.543       .  S
C2160      H2166   1.110       .  S
C2161      H2167   1.087       .  S
C2161      C2162   1.363       .  D
C2162      C2425   1.492       .  S
C2163      H2168   1.088       .  S
C2163      C2164   1.355       .  D
C2164      C2197   1.495       .  S
C2169      C2170   1.552       .  S
C2169      C2175   1.524       .  S
C2169      C2173   1.516       .  S
C2169      C2394   1.537   1_556  S
C2170      H2177   1.080       .  S
C2170      C2171   1.370       .  D
C2171      C2172   1.541       .  S
C2171      C2405   1.486       .  S
C2172      C2176   1.563       .  S
C2172      C2174   1.560       .  S
C2172      H2178   1.111       .  S
C2173      H2179   1.087       .  S
C2173      C2174   1.363       .  D
C2174      C2295   1.488       .  S
C2175      H2180   1.088   1_556  S
C2175      C2176   1.360       .  D
C2176      C2194   1.495       .  S
C2181      C2182   1.547       .  S
C2181      C2187   1.505       .  S
C2181      C2185   1.525       .  S
C2181      C2345   1.532       .  S
C2182      H2189   1.085       .  S
C2182      C2183   1.370       .  D
C2183      C2184   1.542       .  S
C2183      C2374   1.499       .  S
C2184      C2188   1.581       .  S
C2184      C2186   1.563       .  S
C2184      H2190   1.108       .  S
C2185      H2191   1.085       .  S
C2185      C2186   1.367       .  D
C2186      C2293   1.498       .  S
C2187      H2192   1.089       .  S
C2187      C2188   1.353       .  D
C2188      C2196   1.505       .  S
O2193      C2196   1.267       .  A
O2193     Cd2198   2.610       .  S
C2194      O2199   1.268       .  A
O2195      C2201   1.266       .  A
C2197      O2202   1.268       .  A
Cd2198     O2205   2.454       .  S
Cd2198     O2199   2.579       .  S
Cd2198     O2200   2.426   1_556  S
C2201      C2225   1.502       .  S
C2206      C2207   1.557       .  S
C2206      C2212   1.524       .  S
C2206      C2210   1.534       .  S
C2206      C2414   1.548       .  S
C2207      H2214   1.076       .  S
C2207      C2208   1.371       .  D
C2208      C2209   1.531       .  S
C2208      C2385   1.484       .  S
C2209      C2213   1.555       .  S
C2209      C2211   1.550       .  S
C2209      H2215   1.111       .  S
C2210      H2216   1.087       .  S
C2210      C2211   1.371       .  D
C2211      C2268   1.490       .  S
C2212      H2217   1.088       .  S
C2212      C2213   1.357       .  D
C2213      C2243   1.488       .  S
C2218      C2219   1.525       .  S
C2218      C2224   1.522       .  S
C2218      C2222   1.571       .  S
C2219      H2226   1.088       .  S
C2219      C2220   1.363       .  D
C2220      C2221   1.575       .  S
C2220      C2275   1.503       .  S
C2221      C2225   1.555       .  S
C2221      C2223   1.535       .  S
C2221      H2227   1.097       .  S
C2222      H2228   1.074       .  S
C2222      C2223   1.394       .  D
C2223      C2314   1.525       .  S
C2224      H2229   1.089       .  S
C2224      C2225   1.346       .  D
C2230      C2231   1.540       .  S
C2230      C2236   1.527       .  S
C2230      C2234   1.549       .  S
C2230      C2305   1.549       .  S
C2231      H2238   1.080       .  S
C2231      C2232   1.374       .  D
C2232      C2233   1.553       .  S
C2232      C2296   1.483       .  S
C2233      C2237   1.548       .  S
C2233      C2235   1.535       .  S
C2233      H2239   1.111       .  S
C2234      H2240   1.086       .  S
C2234      C2235   1.368       .  D
C2235      C2325   1.493       .  S
C2236      H2241   1.087       .  S
C2236      C2237   1.355       .  D
C2237      C2250   1.483       .  S
O2242     Cd2247   2.433   1_545  S
C2243      O2252   1.264       .  A
C2243      O2248   1.265       .  A
O2244      C2250   1.264       .  A
O2244     Cd2247   2.552       .  S
C2245      C2260   1.480       .  S
C2245      O2253   1.265       .  A
C2246      C2282   1.479       .  S
C2246      O2251   1.267       .  A
C2246      O2249   1.262       .  A
Cd2247     O2254   2.385       .  S
C2250      O2254   1.264       .  A
C2255      C2256   1.550       .  S
C2255      C2261   1.507       .  S
C2255      C2259   1.524       .  S
C2255      C2354   1.529       .  S
C2256      H2263   1.083       .  S
C2256      C2257   1.373       .  D
C2257      C2258   1.544       .  S
C2257      C2365   1.500       .  S
C2258      C2262   1.565       .  S
C2258      C2260   1.553       .  S
C2258      H2264   1.109       .  S
C2259      H2265   1.087       .  S
C2259      C2260   1.360       .  D
C2261      H2266   1.089       .  S
C2261      C2262   1.352       .  D
C2262      C2270   1.482       .  S
O2267      C2270   1.266       .  A
O2267     Cd2272   2.443   1_565  S
C2268      O2277   1.267       .  A
C2268      O2273   1.262       .  A
O2269      C2275   1.273       .  A
O2269     Cd2272   2.542   1_565  S
C2270      O2278   1.264   1_565  A
C2271      O2276   1.263       .  A
C2271      O2274   1.264       .  A
Cd2272     O2279   2.548   1_545  S
Cd2272     O2278   2.546       .  S
C2275      O2279   1.264       .  A
C2280      C2284   1.562       .  S
C2280      C2454   1.539       .  S
C2281      H2288   1.089       .  S
C2281      C2282   1.355   1_455  D
C2282      C2283   1.563       .  S
C2283      C2287   1.547       .  S
C2283      H2289   1.094       .  S
C2284      H2290   1.068       .  S
C2284      C2285   1.391       .  D
C2285      C2434   1.528       .  S
C2286      H2291   1.088       .  S
C2286      C2287   1.350   1_455  D
C2287      C2300   1.485       .  S
O2292      C2295   1.259       .  A
O2292     Cd2297   2.419       .  S
O2294      C2300   1.263       .  A
O2294     Cd2297   2.545       .  S
C2295      O2303   1.264       .  A
C2296      O2301   1.264       .  A
C2296      O2299   1.265       .  A
Cd2297     O2304   2.455       .  S
Cd2297     O2303   2.590       .  S
Cd2297     O2302   2.591   1_655  S
Cd2297     O2298   2.414       .  S
Cd2297     O2301   2.458       .  S
Cd2297     O2299   2.516       .  S
C2300      O2304   1.263       .  A
C2305      C2306   1.425       .  A
C2305      C2310   1.421       .  A
C2306      C2307   1.400       .  A
C2306     Br2318   1.942       .  S
C2307      C2308   1.408       .  A
C2307     Br2322   1.938       .  S
C2308      C2309   1.411       .  A
C2308      C2311   1.490       .  S
C2309      C2310   1.418       .  A
C2309     Br2317   1.930       .  S
C2310     Br2321   1.927       .  S
C2311      C2312   1.401       .  A
C2311      C2316   1.406       .  A
C2312      C2313   1.409       .  A
C2312     Br2323   1.945       .  S
C2313      C2314   1.439       .  A
C2313     Br2319   1.932       .  S
C2314      C2315   1.423       .  A
C2315      C2316   1.414       .  A
C2315     Br2324   1.934       .  S
C2316     Br2320   1.928       .  S
C2325      C2326   1.410       .  A
C2325      C2330   1.412       .  A
C2326      C2327   1.412       .  A
C2326     Br2338   1.924       .  S
C2327      C2328   1.413       .  A
C2327     Br2342   1.930       .  S
C2328      C2329   1.412       .  A
C2328      C2331   1.498       .  S
C2329      C2330   1.411       .  A
C2329     Br2337   1.932       .  S
C2330     Br2341   1.928       .  S
C2331      C2332   1.410       .  A
C2331      C2336   1.404       .  A
C2332      C2333   1.421       .  A
C2332     Br2343   1.931       .  S
C2333      C2334   1.424       .  A
C2334      C2335   1.436       .  A
C2335      C2336   1.408       .  A
C2335     Br2344   1.940       .  S
C2336     Br2340   1.938       .  S
C2345      C2346   1.428       .  A
C2346     Br2358   1.945       .  S
C2347      C2348   1.400       .  A
C2347     Br2362   1.928       .  S
C2348      C2349   1.394       .  A
C2348      C2351   1.471       .  S
C2349      C2350   1.406       .  A
C2351      C2352   1.407       .  A
C2351      C2356   1.398       .  A
C2352      C2353   1.399       .  A
C2352     Br2363   1.940       .  S
C2353      C2354   1.422       .  A
C2353     Br2359   1.941       .  S
C2354      C2355   1.432       .  A
C2355      C2356   1.403       .  A
C2355     Br2364   1.942       .  S
C2356     Br2360   1.934       .  S
C2365      C2366   1.419       .  A
C2365      C2370   1.424       .  A
C2366      C2367   1.408       .  A
C2366     Br2378   1.930       .  S
C2367      C2368   1.406       .  A
C2367     Br2382   1.933       .  S
C2368      C2369   1.408       .  A
C2368      C2371   1.486       .  S
C2369      C2370   1.407       .  A
C2369     Br2377   1.936       .  S
C2370     Br2381   1.936       .  S
C2371      C2372   1.409       .  A
C2371      C2376   1.405       .  A
C2372      C2373   1.411       .  A
C2372     Br2383   1.930       .  S
C2373      C2374   1.416       .  A
C2373     Br2379   1.929       .  S
C2374      C2375   1.426       .  A
C2375      C2376   1.402       .  A
C2375     Br2384   1.939       .  S
C2376     Br2380   1.937       .  S
C2385      C2386   1.415       .  A
C2385      C2390   1.410       .  A
C2386      C2387   1.406       .  A
C2386     Br2398   1.932       .  S
C2387      C2388   1.407       .  A
C2387     Br2402   1.931       .  S
C2388      C2389   1.408       .  A
C2388      C2391   1.482       .  S
C2389      C2390   1.407       .  A
C2389     Br2397   1.930       .  S
C2390     Br2401   1.925       .  S
C2391      C2392   1.408       .  A
C2391      C2396   1.403       .  A
C2392     Br2403   1.930       .  S
C2393      C2394   1.415       .  A
C2393     Br2399   1.930   1_554  S
C2395      C2396   1.404       .  A
C2395     Br2404   1.938       .  S
C2396     Br2400   1.934       .  S
C2405      C2406   1.412       .  A
C2405      C2410   1.410       .  A
C2406      C2407   1.406       .  A
C2406     Br2418   1.931       .  S
C2407      C2408   1.410       .  A
C2407     Br2422   1.934       .  S
C2408      C2409   1.409       .  A
C2408      C2411   1.485       .  S
C2409      C2410   1.410       .  A
C2409     Br2417   1.928       .  S
C2410     Br2421   1.924       .  S
C2411      C2412   1.407       .  A
C2411      C2416   1.405       .  A
C2412      C2413   1.409       .  A
C2412     Br2423   1.928       .  S
C2413      C2414   1.418       .  A
C2413     Br2419   1.928       .  S
C2414      C2415   1.426       .  A
C2415      C2416   1.408       .  A
C2415     Br2424   1.935       .  S
C2416     Br2420   1.931       .  S
C2425      C2426   1.412       .  A
C2425      C2430   1.417       .  A
C2426      C2427   1.413       .  A
C2426     Br2438   1.926       .  S
C2427      C2428   1.410       .  A
C2427     Br2442   1.928       .  S
C2428      C2429   1.407       .  A
C2428      C2431   1.488       .  S
C2429      C2430   1.405       .  A
C2429     Br2437   1.933       .  S
C2430     Br2441   1.932       .  S
C2431      C2432   1.403       .  A
C2431      C2436   1.402       .  A
C2432      C2433   1.411       .  A
C2432     Br2443   1.928       .  S
C2433      C2434   1.425       .  A
C2433     Br2439   1.935       .  S
C2434      C2435   1.437       .  A
C2435      C2436   1.411       .  A
C2436     Br2440   1.942       .  S
C2446      C2447   1.398       .  A
C2446     Br2458   1.940       .  S
C2447      C2448   1.406       .  A
C2447     Br2462   1.935       .  S
C2448      C2449   1.404       .  A
C2448      C2451   1.472       .  S
C2449      C2450   1.408       .  A
C2449     Br2457   1.930       .  S
C2451      C2452   1.400       .  A
C2451      C2456   1.403       .  A
C2452      C2453   1.398       .  A
C2452     Br2463   1.938       .  S
C2453      C2454   1.432       .  A
C2454      C2455   1.419       .  A
C2455      C2456   1.409       .  A
C2455     Br2464   1.926       .  S
C2456     Br2460   1.923       .  S
