geometry optimzed in LAMMPS
_audit_creation_date              2020-11-30 
_audit_creation_method            'lammps2cif' 
_symmetry_space_group_name_H-M    'P1' 
_symmetry_Int_Tables_number       1 
_symmetry_cell_setting            triclinic 
loop_ 
_symmetry_equiv_pos_as_xyz 
  x,y,z 
_cell_length_a                    58.34350709 
_cell_length_b                    39.39864690933331 
_cell_length_c                    33.385253285098884 
_cell_angle_alpha                 90.07870738885485 
_cell_angle_beta                  90.23791820870609 
_cell_angle_gamma                 89.98377689886178 
loop_ 
_atom_site_label 
_atom_site_type_symbol 
_atom_site_fract_x 
_atom_site_fract_y 
_atom_site_fract_z 
_atom_site_charge 
C1          C  0.77110140  0.14604713  0.57899921     0.03800
C2          C  0.78499277  0.15538169  0.61172810    -0.12400
C3          C  0.80377068  0.13517331  0.62301302     0.01300
C4          C  0.80803801  0.10482581  0.60225316    -0.10900
C5          C  0.79388526  0.09485753  0.57048780     0.03800
C6          C  0.77572422  0.11572124  0.55843433    -0.10300
H7          H  0.78140367  0.17867557  0.62781144     0.09400
H8          H  0.82193441  0.08829319  0.61142998     0.06900
H9          H  0.76501311  0.10810364  0.53338783     0.06800
C10         C  0.76734131  0.15310362  0.96255779     0.03800
C11         C  0.78467943  0.16574668  0.93767547    -0.12400
C12         C  0.80290721  0.14477693  0.92594789     0.01300
C13         C  0.80367483  0.11103893  0.93921497    -0.10900
C14         C  0.78608086  0.09805210  0.96305424     0.03800
C15         C  0.76801261  0.11910011  0.97486583    -0.10300
H16         H  0.78395590  0.19183228  0.92746978     0.09400
H17         H  0.81728004  0.09429855  0.92934757     0.06900
H18         H  0.75435787  0.10893919  0.99321503     0.06800
N19         N  0.84831972  0.14694385  0.69832184    -0.26600
N20         N  0.83117442  0.16291705  0.71587623    -0.34500
C21         C  0.81286991  0.16257196  0.69118769     0.01700
C22         C  0.81883923  0.14523743  0.65661468     0.07700
C23         C  0.84146965  0.13587225  0.66221403    -0.05400
H24         H  0.79606615  0.17205357  0.69900817     0.08400
H25         H  0.85201164  0.12102981  0.64217261     0.09600
Cu26       Cu  0.83242539  0.17729683  0.77548362     0.44200
Cu27       Cu  0.87937796  0.13721553  0.72558307     0.42000
Cu28       Cu  0.88145861  0.14280268  0.83209367     0.43900
N29         N  0.83311086  0.17064633  0.83691691    -0.34000
N30         N  0.85005970  0.15593330  0.85685168    -0.28300
C31         C  0.84246772  0.14701257  0.89332133    -0.04400
C32         C  0.81976796  0.15682439  0.89656199     0.07800
C33         C  0.81450207  0.17197695  0.86041721     0.01600
H34         H  0.85217583  0.13204873  0.91460083     0.09300
H35         H  0.79761715  0.17940297  0.85013442     0.08400
N36         N  0.91003729  0.13170825  0.79759669    -0.35500
N37         N  0.90900744  0.12967101  0.75813829    -0.27600
C38         C  0.93023184  0.12567523  0.74351520    -0.02900
C39         C  0.94545641  0.12536315  0.77528488     0.05700
C40         C  0.93208096  0.12901441  0.80922898     0.03800
H41         H  0.93434164  0.12521230  0.71196467     0.08900
H42         H  0.93802018  0.13173077  0.83981780     0.07800
C43         C  0.78021823  0.81285833  0.42522061     0.03800
C44         C  0.78407645  0.84235429  0.44804261    -0.12400
C45         C  0.80145890  0.86517626  0.43741658     0.01300
C46         C  0.81575688  0.85777600  0.40495457    -0.10900
C47         C  0.81214455  0.82845130  0.38188282     0.03800
C48         C  0.79410207  0.80645520  0.39179670    -0.10300
H49         H  0.77312565  0.84810784  0.47330271     0.09400
H50         H  0.82892133  0.87578145  0.39657610     0.06900
H51         H  0.79088803  0.78411694  0.37367910     0.06800
C52         C  0.77775769  0.79089978  0.02750844     0.03800
C53         C  0.77691979  0.82463048  0.01411402    -0.12400
C54         C  0.79295706  0.84833645  0.02781956     0.01300
C55         C  0.80984814  0.83848676  0.05529157    -0.10900
C56         C  0.81036449  0.80516938  0.06987221     0.03800
C57         C  0.79445978  0.78134486  0.05570161    -0.10300
H58         H  0.76355699  0.83258319  0.99350402     0.09400
H59         H  0.82173004  0.85723843  0.06696383     0.06900
H60         H  0.79499861  0.75551416  0.06679083     0.06800
N61         N  0.85505338  0.82126381  0.30289294    -0.26600
N62         N  0.83755386  0.80533069  0.28606864    -0.34500
C63         C  0.81989531  0.80486007  0.31174714     0.01700
C64         C  0.82648572  0.82152791  0.34642324     0.07700
C65         C  0.84889816  0.83164484  0.33973285    -0.05400
H66         H  0.80317218  0.79445334  0.30490269     0.08400
H67         H  0.85991522  0.84558819  0.36004343     0.09600
Cu68       Cu  0.83718756  0.78931495  0.22712707     0.44200
Cu69       Cu  0.88634216  0.82809851  0.27447681     0.42000
Cu70       Cu  0.88741952  0.81039392  0.16854222     0.43900
N71         N  0.83769456  0.78972364  0.16526593    -0.34000
N72         N  0.85560103  0.79944028  0.14401005    -0.28300
C73         C  0.84898043  0.80412112  0.10580782    -0.04400
C74         C  0.82593564  0.79642530  0.10285180     0.07800
C75         C  0.81931725  0.78739705  0.14103589     0.01600
H76         H  0.85976613  0.81445391  0.08253451     0.09300
H77         H  0.80198589  0.78298352  0.15121794     0.08400
N78         N  0.91666696  0.82042981  0.20191113    -0.35500
N79         N  0.91619156  0.82721777  0.24068927    -0.27600
C80         C  0.93781911  0.83039548  0.25422980    -0.02900
C81         C  0.95262506  0.82524551  0.22251275     0.05700
C82         C  0.93862622  0.81910285  0.18972870     0.03800
H83         H  0.94240889  0.83483171  0.28522917     0.08900
H84         H  0.94397022  0.81291511  0.15961554     0.07800
C85         C  0.65267259  0.65818804  0.51919348     0.03800
C86         C  0.63684408  0.67020375  0.54745923    -0.12400
C87         C  0.61976653  0.64861696  0.56232966     0.01300
C88         C  0.61873145  0.61488297  0.54913946    -0.10900
C89         C  0.63494318  0.60246750  0.52205811     0.03800
C90         C  0.65174252  0.62419206  0.50676320    -0.10300
H91         H  0.63791248  0.69620075  0.55796496     0.09400
H92         H  0.60603758  0.59775962  0.56143070     0.06900
H93         H  0.66437139  0.61448476  0.48595817     0.06800
C94         C  0.65171503  0.64274192  0.91559578     0.03800
C95         C  0.64677765  0.61171379  0.93401771    -0.12400
C96         C  0.62834459  0.59202000  0.92075071     0.01300
C97         C  0.61433666  0.60368535  0.88963156    -0.10900
C98         C  0.61913849  0.63466859  0.87070841     0.03800
C99         C  0.63808021  0.65391096  0.88343063    -0.10300
H100        H  0.65732102  0.60280963  0.95867739     0.09400
H101        H  0.60016938  0.58806898  0.87948518     0.06900
H102        H  0.64194598  0.67784748  0.86900606     0.06800
N103        N  0.57555211  0.65025579  0.79486570    -0.26600
N104        N  0.59354920  0.66410485  0.77740667    -0.34500
C105        C  0.61159012  0.66241016  0.80256544     0.01700
C106        C  0.60459726  0.64630813  0.83725401     0.07700
C107        C  0.58164643  0.63909070  0.83133381    -0.05400
H108        H  0.62887080  0.66988688  0.79493609     0.08400
H109        H  0.57037646  0.62554866  0.85139560     0.09600
Cu110      Cu  0.59387577  0.67731315  0.71742095     0.44200
Cu111      Cu  0.54405575  0.64398249  0.76746595     0.42000
Cu112      Cu  0.54280720  0.65218412  0.66097593     0.43900
N113        N  0.59282167  0.67196699  0.65575123    -0.34000
N114        N  0.57478151  0.66062982  0.63565617    -0.28300
C115        C  0.58126045  0.65278617  0.59815649    -0.04400
C116        C  0.60434821  0.66004487  0.59434982     0.07800
C117        C  0.61109989  0.67220792  0.63136821     0.01600
H118        H  0.57032753  0.64072555  0.57608861     0.09300
H119        H  0.62847727  0.67738551  0.64104928     0.08400
N120        N  0.51346057  0.64548502  0.69510610    -0.35500
N121        N  0.51409345  0.64212866  0.73446369    -0.27600
C122        C  0.49259097  0.63956965  0.74842597    -0.02900
C123        C  0.47765564  0.64152831  0.71628276     0.05700
C124        C  0.49144972  0.64524004  0.68290160     0.03800
H125        H  0.48818866  0.63744068  0.77975490     0.08900
H126        H  0.48591419  0.64831696  0.65214066     0.07800
C127        C  0.64234726  0.31029696  0.06083178     0.03800
C128        C  0.62962738  0.30245508  0.09527402    -0.12400
C129        C  0.61251643  0.32464537  0.10897036     0.01300
C130        C  0.60876303  0.35544457  0.08882112    -0.10900
C131        C  0.62201391  0.36397526  0.05539360     0.03800
C132        C  0.63838015  0.34110306  0.04101587    -0.10300
H133        H  0.63280062  0.27883482  0.11094899     0.09400
H134        H  0.59609398  0.37324909  0.09982333     0.06900
H135        H  0.64836674  0.34762516  0.01481741     0.06800
C136        C  0.64237785  0.29443421  0.47284736     0.03800
C137        C  0.62654126  0.28260910  0.44401939    -0.12400
C138        C  0.61053213  0.30491142  0.42666733     0.01300
C139        C  0.61013390  0.33899724  0.43873858    -0.10900
C140        C  0.62614452  0.35111104  0.46662192     0.03800
C141        C  0.64214537  0.32886211  0.48361652    -0.10300
H142        H  0.62703998  0.25633381  0.43442521     0.09400
H143        H  0.59836964  0.35661691  0.42454461     0.06900
H144        H  0.65495282  0.33865950  0.50421254     0.06800
N145        N  0.56779623  0.29576450  0.34805246    -0.26600
N146        N  0.58672712  0.28789158  0.32841548    -0.34500
C147        C  0.60434266  0.28650242  0.35453950     0.01700
C148        C  0.59624175  0.29419116  0.39236925     0.07700
C149        C  0.57303292  0.30020316  0.38704151    -0.05400
H150        H  0.62212263  0.28376734  0.34600634     0.08400
H151        H  0.56117352  0.30948890  0.40934888     0.09600
Cu152      Cu  0.58914512  0.28802682  0.26622128     0.44200
Cu153      Cu  0.53622573  0.30459631  0.32032511     0.42000
Cu154      Cu  0.53770272  0.31393710  0.21306364     0.43900
N155        N  0.58850087  0.30055428  0.20565821    -0.34000
N156        N  0.56987568  0.31141960  0.18692759    -0.28300
C157        C  0.57551207  0.32121319  0.14967283    -0.04400
C158        C  0.59873863  0.31591973  0.14447798     0.07800
C159        C  0.60643418  0.30264802  0.18049321     0.01600
H160        H  0.56360252  0.33172518  0.12807847     0.09300
H161        H  0.62394701  0.29650531  0.18843761     0.08400
N162        N  0.50760988  0.31591040  0.24594423    -0.35500
N163        N  0.50700789  0.31276027  0.28535206    -0.27600
C164        C  0.48508194  0.31523697  0.29754144    -0.02900
C165        C  0.47124637  0.32010819  0.26417520     0.05700
C166        C  0.48613395  0.32037143  0.23200965     0.03800
H167        H  0.47961741  0.31330699  0.32835831     0.08900
H168        H  0.48170667  0.32344422  0.20071085     0.07800
C169        C  0.13676758  0.16782708  0.55755568     0.03800
C170        C  0.12207217  0.17893098  0.58834610    -0.12400
C171        C  0.10415020  0.15799414  0.60189568     0.01300
C172        C  0.10141817  0.12557310  0.58516136    -0.10900
C173        C  0.11634989  0.11394516  0.55559673     0.03800
C174        C  0.13369276  0.13520463  0.54132576    -0.10300
H175        H  0.12460152  0.20374415  0.60167588     0.09400
H176        H  0.08825867  0.10863626  0.59621669     0.06900
H177        H  0.14501795  0.12613014  0.51798699     0.06800
C178        C  0.15094217  0.15156678  0.94658749     0.03800
C179        C  0.13456494  0.16426478  0.91961088    -0.12400
C180        C  0.11728435  0.14307894  0.90467206     0.01300
C181        C  0.11635428  0.10906410  0.91678150    -0.10900
C182        C  0.13288171  0.09605521  0.94305820     0.03800
C183        C  0.15020937  0.11728653  0.95778245    -0.10300
H184        H  0.13504849  0.19073103  0.91081888     0.09400
H185        H  0.10309563  0.09244511  0.90514317     0.06900
H186        H  0.16298767  0.10720255  0.97821163     0.06800
N187        N  0.06885347  0.15944349  0.83963073    -0.26600
N188        N  0.08532638  0.17446782  0.81913462    -0.34500
C189        C  0.10485329  0.17316362  0.84064715     0.01700
C190        C  0.10038204  0.15611469  0.87593257     0.07700
C191        C  0.07744748  0.14783260  0.87430226    -0.05400
H192        H  0.12146982  0.18099557  0.82974107     0.08400
H193        H  0.06801738  0.13259585  0.89554973     0.09600
Cu194      Cu  0.08233909  0.18736966  0.75918135     0.44200
Cu195      Cu  0.03649055  0.14941949  0.81810142     0.42000
Cu196      Cu  0.03263498  0.14918180  0.71169465     0.43900
N197        N  0.07933758  0.18048661  0.69786702    -0.34000
N198        N  0.06174600  0.16480141  0.68095870    -0.28300
C199        C  0.06717824  0.15707480  0.64294732    -0.04400
C200        C  0.08925302  0.16839957  0.63547094     0.07800
C201        C  0.09631409  0.18343627  0.67090540     0.01600
H202        H  0.05650563  0.14198620  0.62322061     0.09300
H203        H  0.11343287  0.19219496  0.67799675     0.08400
N204        N  0.00526732  0.13692173  0.74869603    -0.35500
N205        N  0.00670114  0.13749433  0.78817597    -0.27600
C206        C  0.98589452  0.13162132  0.80385538    -0.02900
C207        C  0.97056340  0.12723243  0.77262741     0.05700
C208        C  0.98343676  0.13055975  0.73808629     0.03800
H209        H  0.98206107  0.13226739  0.83551237     0.08900
H210        H  0.97719394  0.13035960  0.70752883     0.07800
C211        C  0.15243224  0.79721964  0.03510895     0.03800
C212        C  0.13920654  0.78713915  0.06824472    -0.12400
C213        C  0.12275788  0.80930632  0.08438985     0.01300
C214        C  0.12003183  0.84179291  0.06794634    -0.10900
C215        C  0.13365205  0.85240064  0.03590593     0.03800
C216        C  0.14946864  0.82986069  0.01908763    -0.10300
H217        H  0.14157694  0.76214220  0.08110918     0.09400
H218        H  0.10773875  0.85928081  0.08083331     0.06900
H219        H  0.15992201  0.83804422  0.99412563     0.06800
C220        C  0.13714603  0.82062194  0.45704239     0.03800
C221        C  0.12603345  0.81017512  0.42159774    -0.12400
C222        C  0.10849372  0.82996965  0.40464318     0.01300
C223        C  0.10270714  0.86108907  0.42242290    -0.10900
C224        C  0.11432647  0.87237909  0.45664617     0.03800
C225        C  0.13088971  0.85163143  0.47468763    -0.10300
H226        H  0.13106546  0.78666141  0.40723003     0.09400
H227        H  0.09017349  0.87754917  0.40831866     0.06900
H228        H  0.13966246  0.86045007  0.50141721     0.06800
N229        N  0.07161094  0.81618163  0.31803499    -0.26600
N230        N  0.09116457  0.80412735  0.30399482    -0.34500
C231        C  0.10706010  0.80543151  0.33336095     0.01700
C232        C  0.09704580  0.81943369  0.36714034     0.07700
C233        C  0.07459712  0.82589767  0.35626408    -0.05400
H234        H  0.12492918  0.79886592  0.32958595     0.08400
H235        H  0.06151593  0.83773024  0.37443631     0.09600
Cu236      Cu  0.09618998  0.79218116  0.24377046     0.44200
Cu237      Cu  0.04175551  0.82111254  0.28499096     0.42000
Cu238      Cu  0.04528504  0.80539056  0.18074158     0.43900
N239        N  0.09674099  0.79277679  0.18127054    -0.34000
N240        N  0.07833922  0.79866957  0.15899935    -0.28300
C241        C  0.08480986  0.80306415  0.12078776    -0.04400
C242        C  0.10831389  0.79930428  0.11853243     0.07800
C243        C  0.11537339  0.79284719  0.15745371     0.01600
H244        H  0.07338593  0.81053219  0.09675530     0.09300
H245        H  0.13287406  0.79136018  0.16816205     0.08400
N246        N  0.01436039  0.81542690  0.20914620    -0.35500
N247        N  0.01330159  0.82179438  0.24793691    -0.27600
C248        C  0.99134633  0.82692804  0.25833038    -0.02900
C249        C  0.97784252  0.82356109  0.22442135     0.05700
C250        C  0.99299318  0.81628569  0.19369982     0.03800
H251        H  0.98563266  0.83196504  0.28853011     0.08900
H252        H  0.98879089  0.81142703  0.16261212     0.07800
C253        C  0.26909744  0.67223174  0.54695896     0.03800
C254        C  0.28746168  0.68443013  0.56984867    -0.12400
C255        C  0.30666786  0.66394175  0.57673993     0.01300
C256        C  0.30782314  0.63168778  0.55896165    -0.10900
C257        C  0.28872095  0.61788272  0.53878761     0.03800
C258        C  0.26926724  0.63854986  0.53329219    -0.10300
H259        H  0.28677577  0.70983224  0.58230677     0.09400
H260        H  0.32309952  0.61646855  0.56307114     0.06900
H261        H  0.25415550  0.62866135  0.51839996     0.06800
C262        C  0.27692454  0.64708019  0.91886024     0.03800
C263        C  0.29359679  0.65940346  0.89214283    -0.12400
C264        C  0.31143777  0.63819649  0.87871580     0.01300
C265        C  0.31306251  0.60496871  0.89364657    -0.10900
C266        C  0.29631251  0.59249829  0.91968526     0.03800
C267        C  0.27810924  0.61321400  0.93128156    -0.10300
H268        H  0.29273668  0.68544928  0.88189076     0.09400
H269        H  0.32672062  0.58831053  0.88385080     0.06900
H270        H  0.26497981  0.60296395  0.95071321     0.06800
N271        N  0.35658562  0.65178499  0.80492344    -0.26600
N272        N  0.33943222  0.66878318  0.78846906    -0.34500
C273        C  0.32139929  0.66832691  0.81342071     0.01700
C274        C  0.32730357  0.64982047  0.84710800     0.07700
C275        C  0.34975816  0.63963687  0.84063632    -0.05400
H276        H  0.30461353  0.67828003  0.80608337     0.08400
H277        H  0.36006601  0.62348737  0.85972848     0.09600
Cu278      Cu  0.33928602  0.68495613  0.72940042     0.44200
Cu279      Cu  0.38776855  0.64403388  0.77609492     0.42000
Cu280      Cu  0.38649436  0.65801492  0.66841068     0.43900
N281        N  0.33803354  0.68327043  0.66738662    -0.34000
N282        N  0.35484434  0.67116991  0.64514359    -0.28300
C283        C  0.34687027  0.66518503  0.60794247    -0.04400
C284        C  0.32395971  0.67429385  0.60662355     0.07800
C285        C  0.31902419  0.68585564  0.64477580     0.01600
H286        H  0.35651555  0.65259396  0.58463781     0.09300
H287        H  0.30219496  0.69159909  0.65649748     0.08400
N288        N  0.41607506  0.64789613  0.70052589    -0.35500
N289        N  0.41669010  0.64289758  0.73969021    -0.27600
C290        C  0.43867369  0.63913061  0.75123565    -0.02900
C291        C  0.45245453  0.64189611  0.71772539     0.05700
C292        C  0.43755605  0.64737083  0.68613014     0.03800
H293        H  0.44422235  0.63553811  0.78190661     0.08900
H294        H  0.44198961  0.65168600  0.65513421     0.07800
C295        C  0.26558872  0.31473158  0.44848331     0.03800
C296        C  0.28246535  0.30241770  0.42233321    -0.12400
C297        C  0.30140522  0.32272132  0.41250582     0.01300
C298        C  0.30379609  0.35470443  0.43055824    -0.10900
C299        C  0.28578344  0.36906500  0.45287871     0.03800
C300        C  0.26660615  0.34862660  0.46137499    -0.10300
H301        H  0.28098225  0.27703957  0.41003999     0.09400
H302        H  0.31906405  0.36945359  0.42473097     0.06900
H303        H  0.25226085  0.35883879  0.47793092     0.06800
C304        C  0.27431791  0.30684647  0.05444080     0.03800
C305        C  0.27784670  0.33635753  0.03194025    -0.12400
C306        C  0.29481989  0.35953827  0.04306114     0.01300
C307        C  0.30922477  0.35252072  0.07566636    -0.10900
C308        C  0.30603711  0.32296124  0.09838904     0.03800
C309        C  0.28828191  0.30044269  0.08799577    -0.10300
H310        H  0.26686998  0.34187611  0.00648062     0.09400
H311        H  0.32213492  0.37089637  0.08440003     0.06900
H312        H  0.28538716  0.27786835  0.10576985     0.06800
N313        N  0.34718875  0.31351169  0.33924651    -0.26600
N314        N  0.32950723  0.30147034  0.31883106    -0.34500
C315        C  0.31110726  0.30028121  0.34295719     0.01700
C316        C  0.31736893  0.31247732  0.38034636     0.07700
C317        C  0.34037060  0.32082091  0.37676237    -0.05400
H318        H  0.29393940  0.29407910  0.33298426     0.08400
H319        H  0.35107159  0.33288891  0.39916300     0.09600
Cu320      Cu  0.32976688  0.29494884  0.25717822     0.44200
Cu321      Cu  0.37926646  0.32180526  0.31387938     0.42000
Cu322      Cu  0.38066333  0.32514156  0.20583040     0.43900
N323        N  0.33103728  0.30468341  0.19621827    -0.34000
N324        N  0.34903644  0.31785593  0.17796849    -0.28300
C325        C  0.34312558  0.32569847  0.14007460    -0.04400
C326        C  0.32041414  0.31664373  0.13412227     0.07800
C327        C  0.31335359  0.30329463  0.17030719     0.01600
H328        H  0.35443646  0.33753216  0.11862715     0.09300
H329        H  0.29623843  0.29506086  0.17798543     0.08400
N330        N  0.41003945  0.32589982  0.24149747    -0.35500
N331        N  0.40949624  0.32455072  0.28106803    -0.27600
C332        C  0.43112260  0.32299705  0.29519251    -0.02900
C333        C  0.44601858  0.32334341  0.26302529     0.05700
C334        C  0.43204519  0.32530298  0.22943512     0.03800
H335        H  0.43562468  0.32081504  0.32656670     0.08900
H336        H  0.43741932  0.32520190  0.19847648     0.07800
C337        C  0.28158711  0.50004107  0.93711977    -0.04800
C338        C  0.29702062  0.49167747  0.96815829     0.09300
C339        C  0.31241200  0.51630969  0.98307832    -0.02200
C340        C  0.31251021  0.54920816  0.96665367    -0.00500
C341        C  0.29737600  0.55736570  0.93502688    -0.04100
C342        C  0.28177263  0.53284006  0.92052983     0.03000
C343        C  0.29618683  0.45738053  0.98673233     0.09800
C344        C  0.32757462  0.50803904  0.01620999     0.35700
C345        C  0.26543158  0.54175357  0.88940114     0.39100
C346        C  0.30785736  0.42989479  0.96893137    -0.04400
C347        C  0.30742570  0.39768494  0.98722190     0.02700
C348        C  0.29552213  0.39313009  0.02349239    -0.04000
C349        C  0.28331366  0.42042763  0.04062255    -0.00300
C350        C  0.28345728  0.45241930  0.02202833    -0.02800
C351        C  0.31993265  0.43475871  0.93149664     0.36400
C352        C  0.27031458  0.41539350  0.07710054     0.40000
C353        C  0.31900498  0.36919014  0.96865577     0.39200
C354        C  0.27001952  0.48007536  0.03848786     0.36100
C355        C  0.26496898  0.47520009  0.92339175     0.36800
C356        C  0.32721025  0.57521816  0.98373847     0.40000
N357        N  0.32815276  0.34640904  0.95373571    -0.38000
N358        N  0.32939966  0.43872116  0.90147195    -0.39600
N359        N  0.25995696  0.41130985  0.10618374    -0.37400
N360        N  0.25915381  0.50211081  0.05129094    -0.39800
N361        N  0.33954594  0.50145521  0.04281472    -0.39500
N362        N  0.33873743  0.59610724  0.99756723    -0.37200
N363        N  0.25229026  0.54907722  0.86483324    -0.38200
N364        N  0.25164954  0.45536623  0.91270762    -0.39900
C365        C  0.29947678  0.52197906  0.53620975    -0.04800
C366        C  0.28885784  0.51241265  0.49984616     0.09300
C367        C  0.27861722  0.53771109  0.47571241    -0.02200
C368        C  0.28023378  0.57220746  0.48675608    -0.00500
C369        C  0.28881816  0.58148932  0.52509698    -0.04100
C370        C  0.29747746  0.55549941  0.55045604     0.03000
C371        C  0.28801762  0.47567656  0.48769179     0.09800
C372        C  0.26627206  0.52838175  0.43947401     0.35700
C373        C  0.30310286  0.56231921  0.59208956     0.39100
C374        C  0.27755652  0.45145662  0.51284896    -0.04400
C375        C  0.27874124  0.41661139  0.50342619     0.02700
C376        C  0.28655913  0.40587951  0.46518930    -0.04000
C377        C  0.29487595  0.43100483  0.43832928    -0.00300
C378        C  0.29771536  0.46481451  0.45121869    -0.02800
C379        C  0.26543512  0.46232534  0.54857120     0.36400
C380        C  0.29928064  0.42306668  0.39658805     0.40000
C381        C  0.27270696  0.39241294  0.53428180     0.39200
C382        C  0.31100884  0.48823875  0.42713338     0.36100
C383        C  0.31279968  0.49738654  0.55880667     0.36800
C384        C  0.27376718  0.59777082  0.45763001     0.40000
N385        N  0.26778236  0.37406470  0.55985618    -0.38000
N386        N  0.25575556  0.47093224  0.57702133    -0.39600
N387        N  0.30266078  0.41689989  0.36322150    -0.37400
N388        N  0.32172544  0.50688199  0.40809243    -0.39800
N389        N  0.25650675  0.52104074  0.41048532    -0.39500
N390        N  0.26858248  0.61759868  0.43372404    -0.37200
N391        N  0.30742887  0.56747975  0.62541264    -0.38200
N392        N  0.32355017  0.47775626  0.57652585    -0.39900
C393        C  0.22877893  0.72709646  0.48534828    -0.04800
C394        C  0.21255758  0.73699154  0.51436643     0.09300
C395        C  0.21532158  0.72656932  0.55453363    -0.02200
C396        C  0.23396241  0.70569992  0.56547924    -0.00500
C397        C  0.24981724  0.69505363  0.53621059    -0.04100
C398        C  0.24747921  0.70648064  0.49633264     0.03000
C399        C  0.19278456  0.75895957  0.50250784     0.09800
C400        C  0.19898386  0.73747527  0.58452334     0.35700
C401        C  0.26491189  0.69829201  0.46698674     0.39100
C402        C  0.17079776  0.74476388  0.49721409    -0.04400
C403        C  0.15240735  0.76525243  0.48416392     0.02700
C404        C  0.15612865  0.79978428  0.47443549    -0.04000
C405        C  0.17818046  0.81404561  0.48063799    -0.00300
C406        C  0.19623063  0.79384249  0.49552967    -0.02800
C407        C  0.16719305  0.70894406  0.50496465     0.36400
C408        C  0.18271151  0.84925334  0.47083491     0.40000
C409        C  0.12952424  0.75095986  0.48189503     0.39200
C410        C  0.21844206  0.80892489  0.50388517     0.36100
C411        C  0.22623361  0.73821731  0.44414676     0.36800
C412        C  0.23692294  0.69532550  0.60683468     0.40000
N413        N  0.11125157  0.73959974  0.48032463    -0.38000
N414        N  0.16440039  0.68036468  0.51123362    -0.39600
N415        N  0.18662175  0.87734419  0.46347310    -0.37400
N416        N  0.23611325  0.82094944  0.51083875    -0.39800
N417        N  0.18585513  0.74616077  0.60831877    -0.39500
N418        N  0.23944015  0.68724005  0.63987313    -0.37200
N419        N  0.27896517  0.69220351  0.44369434    -0.38200
N420        N  0.22426729  0.74714649  0.41130118    -0.39900
C421        C  0.23623340  0.69154134  0.99129569    -0.04800
C422        C  0.22200334  0.70989974  0.96478913     0.09300
C423        C  0.22588014  0.70795501  0.92315159    -0.02200
C424        C  0.24350780  0.68706307  0.90798874    -0.00500
C425        C  0.25818234  0.66926233  0.93453348    -0.04100
C426        C  0.25446218  0.67183108  0.97640606     0.03000
C427        C  0.20379395  0.73273504  0.98129765     0.09800
C428        C  0.21208397  0.72819186  0.89597606     0.35700
C429        C  0.26960129  0.65472478  0.00453283     0.39100
C430        C  0.21016776  0.76331100  0.00034256    -0.04400
C431        C  0.19346535  0.78385143  0.01870561     0.02700
C432        C  0.17009966  0.77433710  0.01755119    -0.04000
C433        C  0.16363928  0.74402837  0.99775817    -0.00300
C434        C  0.18044318  0.72333945  0.97956605    -0.02800
C435        C  0.23403430  0.77368149  0.00073649     0.36400
C436        C  0.13966526  0.73444988  0.99544746     0.40000
C437        C  0.20044146  0.81453816  0.03950123     0.39200
C438        C  0.17371226  0.69258486  0.95868515     0.36100
C439        C  0.23235181  0.69349746  0.03417237     0.36800
C440        C  0.24601026  0.68312231  0.86501609     0.40000
N441        N  0.20600403  0.83903287  0.05604950    -0.38000
N442        N  0.25310822  0.78172731  0.00089468    -0.39600
N443        N  0.12054032  0.72677294  0.99369648    -0.37400
N444        N  0.16830694  0.66824697  0.94164813    -0.39800
N445        N  0.20118318  0.74451616  0.87429943    -0.39500
N446        N  0.24802965  0.67988969  0.83074929    -0.37200
N447        N  0.28151829  0.64084086  0.02696159    -0.38200
N448        N  0.22936092  0.69524167  0.06836021    -0.39900
C449        C  0.20091457  0.21319180  0.95415619    -0.04800
C450        C  0.20269814  0.21748691  0.99598881     0.09300
C451        C  0.18740970  0.20047218  0.02164102    -0.02200
C452        C  0.17015040  0.17951467  0.00547228    -0.00500
C453        C  0.16875714  0.17434689  0.96358894    -0.04100
C454        C  0.18433929  0.19106389  0.93800813     0.03000
C455        C  0.22086801  0.23988011  0.01303371     0.09800
C456        C  0.18958614  0.20442085  0.06469842     0.35700
C457        C  0.18377002  0.18476027  0.89517709     0.39100
C458        C  0.21549116  0.27330361  0.02474962    -0.04400
C459        C  0.23275014  0.29466607  0.04018065     0.02700
C460        C  0.25568270  0.28304456  0.04263692    -0.04000
C461        C  0.26093900  0.24935424  0.03123882    -0.00300
C462        C  0.24351972  0.22778818  0.01674296    -0.02800
C463        C  0.19228938  0.28594128  0.01976177     0.36400
C464        C  0.28438622  0.23717422  0.03298273     0.40000
C465        C  0.22682164  0.32852185  0.05384499     0.39200
C466        C  0.24892401  0.19330811  0.00472004     0.36100
C467        C  0.21609053  0.23178502  0.92778326     0.36800
C468        C  0.15348833  0.16397485  0.03189900     0.40000
N469        N  0.22205225  0.35550747  0.06472423    -0.38000
N470        N  0.17379878  0.29598198  0.01548004    -0.39600
N471        N  0.30307866  0.22740449  0.03443779    -0.37400
N472        N  0.25316545  0.16583186  0.99494282    -0.39800
N473        N  0.19139942  0.20749222  0.09904392    -0.39500
N474        N  0.14015418  0.15161344  0.05289859    -0.37200
N475        N  0.18330484  0.17959595  0.86104903    -0.38200
N476        N  0.22813307  0.24679050  0.90680537    -0.39900
C477        C  0.11372632  0.01441505  0.99307330    -0.04800
C478        C  0.13072212  0.99156319  0.97986665     0.09300
C479        C  0.14812470  0.00281779  0.95385162    -0.02200
C480        C  0.14867145  0.03693093  0.94137501    -0.00500
C481        C  0.13198051  0.05998704  0.95532422    -0.04100
C482        C  0.11444506  0.04864855  0.98105983     0.03000
C483        C  0.13083339  0.95582032  0.99451716     0.09800
C484        C  0.16557812  0.97927757  0.94029412     0.35700
C485        C  0.09748216  0.07243464  0.99590506     0.39100
C486        C  0.12219728  0.92946801  0.97013088    -0.04400
C487        C  0.12335257  0.89553406  0.98334867     0.02700
C488        C  0.13239865  0.88801819  0.02163220    -0.04000
C489        C  0.14062340  0.91456811  0.04631826    -0.00300
C490        C  0.14014345  0.94831430  0.03252372    -0.02800
C491        C  0.11201387  0.93744535  0.93157355     0.36400
C492        C  0.15002188  0.90709638  0.08563989     0.40000
C493        C  0.11514970  0.86838606  0.95766517     0.39200
C494        C  0.14959464  0.97536530  0.05707531     0.36100
C495        C  0.09556323  0.00263848  0.01911595     0.36800
C496        C  0.16621395  0.04824809  0.91376511     0.40000
N497        N  0.10873819  0.84670899  0.93705427    -0.38000
N498        N  0.10382030  0.94398741  0.90091410    -0.39600
N499        N  0.15740800  0.90114798  0.11708102    -0.37400
N500        N  0.15718157  0.99701806  0.07647102    -0.39800
N501        N  0.17946179  0.96041361  0.92952227    -0.39500
N502        N  0.18015840  0.05731690  0.89167405    -0.37200
N503        N  0.08401810  0.09152679  0.00769991    -0.38200
N504        N  0.08105138  0.99322438  0.03984651    -0.39900
C505        C  0.21220072  0.25854757  0.45186065    -0.04800
C506        C  0.21073174  0.25137979  0.49333232     0.09300
C507        C  0.22742922  0.26487196  0.51963954    -0.02200
C508        C  0.24586127  0.28405061  0.50456488    -0.00500
C509        C  0.24691693  0.29222107  0.46338079    -0.04100
C510        C  0.22990342  0.27958142  0.43712447     0.03000
C511        C  0.19163137  0.22981777  0.50963062     0.09800
C512        C  0.22543190  0.25945716  0.56247877     0.35700
C513        C  0.23027960  0.28902848  0.39516123     0.39100
C514        C  0.19640440  0.19763450  0.52644900    -0.04400
C515        C  0.17870170  0.17830934  0.54392271     0.02700
C516        C  0.15573690  0.18985201  0.54242137    -0.04000
C517        C  0.15094047  0.22187890  0.52518700    -0.00300
C518        C  0.16889035  0.24217459  0.51007219    -0.02800
C519        C  0.21963628  0.18446095  0.52612720     0.36400
C520        C  0.12746105  0.23370133  0.52203042     0.40000
C521        C  0.18429831  0.14708326  0.56481687     0.39200
C522        C  0.16405467  0.27621429  0.49585994     0.36100
C523        C  0.19545166  0.24440176  0.42432429     0.36800
C524        C  0.26426524  0.29413520  0.53137210     0.40000
N525        N  0.18878257  0.12233408  0.58176348    -0.38000
N526        N  0.23817750  0.17401049  0.52612492    -0.39600
N527        N  0.10872171  0.24310166  0.51939985    -0.37400
N528        N  0.16029415  0.30345708  0.48470396    -0.39800
N529        N  0.22375271  0.25510639  0.59661517    -0.39500
N530        N  0.27904412  0.30148141  0.55291392    -0.37200
N531        N  0.23060138  0.29683987  0.36176298    -0.38200
N532        N  0.18206631  0.23326126  0.40226733    -0.39900
C533        C  0.09878727  0.03731460  0.49356541    -0.04800
C534        C  0.11079405  0.01111090  0.51333833     0.09300
C535        C  0.12423207  0.01855350  0.54746037    -0.02200
C536        C  0.12604763  0.05224539  0.56127991    -0.00500
C537        C  0.11439889  0.07856565  0.54100636    -0.04100
C538        C  0.10053240  0.07100979  0.50747789     0.03000
C539        C  0.11042473  0.97586779  0.49698098     0.09800
C540        C  0.13630753  0.99147716  0.56806596     0.35700
C541        C  0.08806172  0.09797261  0.48745254     0.39100
C542        C  0.12671799  0.96625133  0.46804978    -0.04400
C543        C  0.12754526  0.93250750  0.45434447     0.02700
C544        C  0.11210220  0.90819173  0.46957157    -0.04000
C545        C  0.09506544  0.91813698  0.49703470    -0.00300
C546        C  0.09432742  0.95196166  0.51096671    -0.02800
C547        C  0.14266934  0.99116842  0.45250637     0.36400
C548        C  0.07825781  0.89366973  0.51057395     0.40000
C549        C  0.14410792  0.92282923  0.42409300     0.39200
C550        C  0.07714647  0.96226794  0.53977326     0.36100
C551        C  0.08480422  0.02952582  0.45875926     0.36800
C552        C  0.13990542  0.05988412  0.59633403     0.40000
N553        N  0.15718509  0.91510210  0.39975747    -0.38000
N554        N  0.15531073  0.01112714  0.44004562    -0.39600
N555        N  0.06471518  0.87420752  0.52110638    -0.37400
N556        N  0.06345667  0.97064992  0.56274166    -0.39800
N557        N  0.14587021  0.96977679  0.58443564    -0.39500
N558        N  0.15092488  0.06594987  0.62434403    -0.37200
N559        N  0.07810303  0.11958801  0.47166461    -0.38200
N560        N  0.07365431  0.02323216  0.43098321    -0.39900
C561        C  0.60733075  0.52270627  0.99018840    -0.04800
C562        C  0.62042375  0.49480756  0.97678171     0.09300
C563        C  0.63525801  0.49856001  0.94379224    -0.02200
C564        C  0.63712992  0.53015807  0.92449049    -0.00500
C565        C  0.62451033  0.55822733  0.93858693    -0.04100
C566        C  0.60937181  0.55442145  0.97106243     0.03000
C567        C  0.61947861  0.46175524  0.99846348     0.09800
C568        C  0.64917955  0.47018429  0.93063183     0.35700
C569        C  0.59625730  0.58333404  0.98510729     0.39100
C570        C  0.60595506  0.43487368  0.98344049    -0.04400
C571        C  0.60648623  0.40289775  0.00235850     0.02700
C572        C  0.62012513  0.39800587  0.03685988    -0.04000
C573        C  0.63323886  0.42514341  0.05238566    -0.00300
C574        C  0.63305178  0.45688024  0.03304029    -0.02800
C575        C  0.59176411  0.44011248  0.94822596     0.36400
C576        C  0.64744669  0.42006037  0.08763751     0.40000
C577        C  0.59346977  0.37478532  0.98586493     0.39200
C578        C  0.64731764  0.48432368  0.04795143     0.36100
C579        C  0.59224475  0.51891522  0.02428303     0.36800
C580        C  0.65217319  0.53398713  0.89027976     0.40000
N581        N  0.58320552  0.35225392  0.97262062    -0.38000
N582        N  0.58043906  0.44440079  0.92014454    -0.39600
N583        N  0.65878352  0.41594737  0.11573968    -0.37400
N584        N  0.65871702  0.50626642  0.05964206    -0.39800
N585        N  0.66038926  0.44761523  0.92025457    -0.39500
N586        N  0.66405891  0.53716344  0.86287401    -0.37200
N587        N  0.58582841  0.60650091  0.99612905    -0.38200
N588        N  0.58029698  0.51591556  0.05163072    -0.39900
C589        C  0.64851993  0.50832516  0.52560924    -0.04800
C590        C  0.63329462  0.49560650  0.49630266     0.09300
C591        C  0.61914231  0.51810781  0.47453691    -0.02200
C592        C  0.62017275  0.55325608  0.48213351    -0.00500
C593        C  0.63508188  0.56590227  0.51193637    -0.04100
C594        C  0.64924323  0.54340785  0.53372562     0.03000
C595        C  0.63165887  0.45831113  0.48911791     0.09800
C596        C  0.60322529  0.50493488  0.44489099     0.35700
C597        C  0.66397868  0.55629873  0.56538221     0.39100
C598        C  0.61469854  0.43909534  0.50882096    -0.04400
C599        C  0.61286505  0.40394195  0.50161038     0.02700
C600        C  0.62793705  0.38799747  0.47455614    -0.04000
C601        C  0.64494684  0.40722214  0.45494679    -0.00300
C602        C  0.64694963  0.44226576  0.46253203    -0.02800
C603        C  0.59932904  0.45558050  0.53680149     0.36400
C604        C  0.66015777  0.39093112  0.42650511     0.40000
C605        C  0.59568163  0.38408416  0.52230951     0.39200
C606        C  0.66484400  0.46182196  0.44329925     0.36100
C607        C  0.66310856  0.48515303  0.54782049     0.36800
C608        C  0.60573547  0.57646532  0.45968647     0.40000
N609        N  0.58199729  0.36822639  0.53889341    -0.38000
N610        N  0.58714693  0.46889506  0.55913114    -0.39600
N611        N  0.67218417  0.37780033  0.40376724    -0.37400
N612        N  0.67923018  0.47738062  0.42819401    -0.39800
N613        N  0.59043423  0.49434724  0.42142504    -0.39500
N614        N  0.59426511  0.59510234  0.44185134    -0.37200
N615        N  0.67559618  0.56661697  0.59080371    -0.38200
N616        N  0.67474950  0.46657256  0.56540243    -0.39900
C617        C  0.74114205  0.73949352  0.95534447    -0.04800
C618        C  0.72575320  0.72355602  0.98177283     0.09300
C619        C  0.72840598  0.72765750  0.02350756    -0.02200
C620        C  0.74566194  0.74916704  0.03875557    -0.00500
C621        C  0.76069643  0.76601415  0.01220264    -0.04100
C622        C  0.75878627  0.76020414  0.97051084     0.03000
C623        C  0.70664291  0.70256546  0.96535603     0.09800
C624        C  0.71335693  0.70964554  0.05066787     0.35700
C625        C  0.77526043  0.77504132  0.94317523     0.39100
C626        C  0.71120656  0.67008985  0.94951964    -0.04400
C627        C  0.69347228  0.65118847  0.93149878     0.02700
C628        C  0.67079909  0.66389876  0.93128545    -0.04000
C629        C  0.66616580  0.69608319  0.94817672    -0.00300
C630        C  0.68414483  0.71567810  0.96434253    -0.02800
C631        C  0.73418110  0.65612673  0.95215559     0.36400
C632        C  0.64280118  0.70861160  0.95007367     0.40000
C633        C  0.69871176  0.61908112  0.91227896     0.39200
C634        C  0.67954998  0.74942567  0.97980512     0.36100
C635        C  0.73868512  0.73470298  0.91243187     0.36800
C636        C  0.74750427  0.75451026  0.08166419     0.40000
N637        N  0.70302205  0.59359582  0.89676618    -0.38000
N638        N  0.75253218  0.64513913  0.95455304    -0.39600
N639        N  0.62413409  0.71845217  0.95164931    -0.37400
N640        N  0.67590193  0.77636684  0.99207979    -0.39800
N641        N  0.70139057  0.69516996  0.07229145    -0.39500
N642        N  0.74906346  0.75858061  0.11590889    -0.37200
N643        N  0.78843790  0.78683948  0.92144256    -0.38200
N644        N  0.73673084  0.73071251  0.87824063    -0.39900
C645        C  0.72095574  0.77900747  0.45215770    -0.04800
C646        C  0.72563384  0.74438347  0.45919025     0.09300
C647        C  0.74806723  0.73188195  0.45358326    -0.02200
C648        C  0.76596596  0.75423742  0.44314627    -0.00500
C649        C  0.76128693  0.78896977  0.43577927    -0.04100
C650        C  0.73846372  0.80085593  0.43882753     0.03000
C651        C  0.70706533  0.72149872  0.47420616     0.09800
C652        C  0.75274487  0.69600479  0.45899107     0.35700
C653        C  0.73275054  0.83521204  0.42680319     0.39100
C654        C  0.68913618  0.71096748  0.44846260    -0.04400
C655        C  0.67097030  0.69113946  0.46347187     0.02700
C656        C  0.67107590  0.68068323  0.50391563    -0.04000
C657        C  0.68913104  0.69085978  0.52951274    -0.00300
C658        C  0.70694013  0.71147123  0.51480563    -0.02800
C659        C  0.68949248  0.72034140  0.40647350     0.36400
C660        C  0.68950404  0.67976179  0.57092822     0.40000
C661        C  0.65177732  0.68235478  0.43769555     0.39200
C662        C  0.72512401  0.72259257  0.54151459     0.36100
C663        C  0.69822919  0.79236360  0.45995831     0.36800
C664        C  0.78928994  0.74156957  0.44118747     0.40000
N665        N  0.63632968  0.67554918  0.41736168    -0.38000
N666        N  0.68978255  0.72772084  0.37293754    -0.39600
N667        N  0.68971725  0.67086896  0.60394959    -0.37400
N668        N  0.73970710  0.73144024  0.56267662    -0.39800
N669        N  0.75647009  0.66737716  0.46322347    -0.39500
N670        N  0.80790401  0.73151109  0.43958017    -0.37200
N671        N  0.72811001  0.86247587  0.41677259    -0.38200
N672        N  0.68012814  0.80290902  0.46664455    -0.39900
C673        C  0.67084861  0.23042334  0.01986090    -0.04800
C674        C  0.69381002  0.24118613  0.01626691     0.09300
C675        C  0.69988882  0.27459502  0.02736263    -0.02200
C676        C  0.68322459  0.29687462  0.04283488    -0.00500
C677        C  0.66009062  0.28642928  0.04555995    -0.04100
C678        C  0.65392148  0.25326810  0.03333214     0.03000
C679        C  0.71194570  0.21711612  0.00231803     0.09800
C680        C  0.72344704  0.28585739  0.02328245     0.35700
C681        C  0.63006032  0.24292047  0.03357971     0.39100
C682        C  0.71403958  0.20897925  0.96126976    -0.04400
C683        C  0.73217662  0.18809502  0.94812291     0.02700
C684        C  0.74834228  0.17541701  0.97597053    -0.04000
C685        C  0.74616548  0.18351228  0.01699068    -0.00300
C686        C  0.72780085  0.20376443  0.03018295    -0.02800
C687        C  0.69754493  0.22211651  0.93260079     0.36400
C688        C  0.76333664  0.17200603  0.04546460     0.40000
C689        C  0.73414284  0.17945534  0.90600785     0.39200
C690        C  0.72511891  0.21085627  0.07255636     0.36100
C691        C  0.66477843  0.19555951  0.01075369     0.36800
C692        C  0.69007230  0.33018751  0.05711229     0.40000
N693        N  0.73583412  0.17258747  0.87243043    -0.38000
N694        N  0.68431622  0.23237519  0.90969839    -0.39600
N695        N  0.77714976  0.16296457  0.06802520    -0.37400
N696        N  0.72288672  0.21649682  0.10634031    -0.39800
N697        N  0.74226936  0.29466731  0.02006204    -0.39500
N698        N  0.69554570  0.35671269  0.06860542    -0.37200
N699        N  0.61099301  0.23482912  0.03360346    -0.38200
N700        N  0.65995034  0.16766638  0.00384342    -0.39900
C701        C  0.77460611  0.00347065  0.95655458    -0.04800
C702        C  0.78674788  0.99145621  0.99034627     0.09300
C703        C  0.79844589  0.01458840  0.01550292    -0.02200
C704        C  0.79790853  0.04960286  0.00700071    -0.00500
C705        C  0.78582755  0.06152722  0.97319195    -0.04100
C706        C  0.77414886  0.03845929  0.94800873     0.03000
C707        C  0.78770740  0.95429900  0.99895840     0.09800
C708        C  0.81148791  0.00218848  0.04954635     0.35700
C709        C  0.76199945  0.05078158  0.91290800     0.39100
C710        C  0.80230521  0.93305322  0.97641330    -0.04400
C711        C  0.80380920  0.89818191  0.98537562     0.02700
C712        C  0.79062223  0.88447840  0.01670914    -0.04000
C713        C  0.77555897  0.90546544  0.03850947    -0.00300
C714        C  0.77427140  0.94039478  0.02995285    -0.02800
C715        C  0.81595312  0.94725011  0.94432014     0.36400
C716        C  0.76146799  0.89096404  0.06986277     0.40000
C717        C  0.81885308  0.87634416  0.96238542     0.39200
C718        C  0.75936370  0.96210036  0.05338740     0.36100
C719        C  0.76298775  0.97972627  0.93016038     0.36800
C720        C  0.80994266  0.07340927  0.03272642     0.40000
N721        N  0.83082484  0.85889299  0.94400543    -0.38000
N722        N  0.82671187  0.95870010  0.91862296    -0.39600
N723        N  0.75022432  0.87907120  0.09463102    -0.37400
N724        N  0.74758646  0.97935545  0.07239629    -0.39800
N725        N  0.82190845  0.99218582  0.07663688    -0.39500
N726        N  0.81952915  0.09249606  0.05315685    -0.37200
N727        N  0.75236965  0.06073776  0.88491672    -0.38200
N728        N  0.75390612  0.96075290  0.90889346    -0.39900
C729        C  0.71098029  0.17600396  0.55076268    -0.04800
C730        C  0.71537622  0.20932808  0.53738489     0.09300
C731        C  0.73792725  0.22223260  0.53883016    -0.02200
C732        C  0.75608868  0.20171023  0.55272317    -0.00500
C733        C  0.75178093  0.16817657  0.56578412    -0.04100
C734        C  0.72907905  0.15552872  0.56506706     0.03000
C735        C  0.69631690  0.23069714  0.52091912     0.09800
C736        C  0.74243432  0.25662824  0.52556381     0.35700
C737        C  0.72425453  0.12151736  0.57938009     0.39100
C738        C  0.68073173  0.24674525  0.54700015    -0.04400
C739        C  0.66292776  0.26718081  0.53142774     0.02700
C740        C  0.66056539  0.27168987  0.48949143    -0.04000
C741        C  0.67648402  0.25595587  0.46352250    -0.00300
C742        C  0.69419669  0.23547116  0.47918701    -0.02800
C743        C  0.68336137  0.24267813  0.58996993     0.36400
C744        C  0.67534099  0.26207641  0.42071264     0.40000
C745        C  0.64715858  0.28368838  0.55873253     0.39200
C746        C  0.71062163  0.21980498  0.45238655     0.36100
C747        C  0.68781225  0.16268664  0.54940682     0.36800
C748        C  0.77932973  0.21480660  0.55226194     0.40000
N749        N  0.63477113  0.29708476  0.58065385    -0.38000
N750        N  0.68555240  0.23934566  0.62421003    -0.39600
N751        N  0.67438881  0.26702983  0.38658611    -0.31000
N752        N  0.72386877  0.20752675  0.43111361    -0.39800
N753        N  0.74598363  0.28403064  0.51481211    -0.39500
N754        N  0.79787061  0.22523519  0.55197414    -0.37200
N755        N  0.72040979  0.09434317  0.59062331    -0.38200
N756        N  0.66932216  0.15208373  0.54842793    -0.39900
C757        C  0.81543158  0.93598421  0.51145198    -0.04800
C758        C  0.80364637  0.96357649  0.49386590     0.09300
C759        C  0.79172389  0.95890355  0.45740538    -0.02200
C760        C  0.79135329  0.92678221  0.43887544    -0.00500
C761        C  0.80272671  0.89902923  0.45682930    -0.04100
C762        C  0.81494860  0.90373187  0.49296864     0.03000
C763        C  0.80240258  0.99706935  0.51491295     0.09800
C764        C  0.77930581  0.98701025  0.43952370     0.35700
C765        C  0.82697346  0.87541117  0.51109092     0.39100
C766        C  0.81481032  0.02532369  0.50053772    -0.04400
C767        C  0.81212024  0.05740135  0.51876942     0.02700
C768        C  0.79717159  0.06122437  0.55154766    -0.04000
C769        C  0.78525632  0.03285639  0.56657403    -0.00300
C770        C  0.78776874  0.00090385  0.54819523    -0.02800
C771        C  0.83020271  0.02138638  0.46685788     0.36400
C772        C  0.77033204  0.03664223  0.60094934     0.40000
C773        C  0.82453409  0.08657483  0.50370009     0.39200
C774        C  0.77502539  0.97198682  0.56313939     0.36100
C775        C  0.82768489  0.94077678  0.54892656     0.36800
C776        C  0.77895635  0.92208368  0.40150500     0.40000
N777        N  0.83439496  0.10992473  0.49175937    -0.38000
N778        N  0.84245413  0.01831483  0.43992021    -0.39600
N779        N  0.75848499  0.03968709  0.62843512    -0.37400
N780        N  0.76498615  0.94880316  0.57506417    -0.39800
N781        N  0.76944384  0.00949927  0.42533165    -0.39500
N782        N  0.76912550  0.91822313  0.37167021    -0.37200
N783        N  0.83662561  0.85287458  0.52561568    -0.38200
N784        N  0.83728038  0.94474065  0.57897968    -0.39900
loop_ 
_geom_bond_atom_site_label_1 
_geom_bond_atom_site_label_2 
_geom_bond_distance 
_geom_bond_site_symmetry_2 
_ccdc_geom_bond_type 
C1            C2   1.406       .  A
C1            C6   1.404       .  A
C1          C733   1.491       .  S
C2            C3   1.405       .  A
C2            H7   1.083       .  S
C3            C4   1.404       .  A
C3           C22   1.476       .  S
C4            C5   1.397       .  A
C4            H8   1.083       .  S
C5            C6   1.399       .  A
C5          C768   1.480       .  S
C6            H9   1.084       .  S
C10          C11   1.404       .  A
C10          C15   1.402       .  A
C10         C684   1.485       .  S
C11          C12   1.403       .  A
C11          H16   1.084       .  S
C12          C13   1.402       .  A
C12          C32   1.471       .  S
C13          C14   1.399       .  A
C13          H17   1.084       .  S
C14          C15   1.399       .  A
C14         C705   1.479       .  S
C15          H18   1.084       .  S
N19          N20   1.320       .  A
N19          C23   1.341       .  A
N19         Cu27   2.060       .  S
N20          C21   1.346       .  A
N20         Cu26   2.069       .  S
C21          C22   1.386       .  A
C21          H24   1.082       .  S
C22          C23   1.383       .  A
C23          H25   1.082       .  S
Cu26         N29   2.068       .  S
Cu27         N37   2.060       .  S
Cu28         N30   2.078       .  S
Cu28         N36   2.076       .  S
N29          N30   1.324       .  A
N29          C33   1.343       .  A
N30          C31   1.345       .  A
C31          C32   1.384       .  A
C31          H34   1.082       .  S
C32          C33   1.380       .  A
C33          H35   1.082       .  S
N36          N37   1.321       .  A
N36          C40   1.346       .  A
N37          C38   1.342       .  A
C38          C39   1.381       .  A
C38          H41   1.081       .  S
C39          C40   1.386       .  A
C39         C207   1.470       .  S
C40          H42   1.082       .  S
C43          C44   1.406       .  A
C43          C48   1.404       .  A
C43         C649   1.495       .  S
C44          C45   1.403       .  A
C44          H49   1.084       .  S
C45          C46   1.401       .  A
C45         C761   1.484       .  S
C46          C47   1.403       .  A
C46          H50   1.084       .  S
C47          C48   1.405       .  A
C47          C64   1.478       .  S
C48          H51   1.083       .  S
C52          C53   1.404       .  A
C52          C57   1.404       .  A
C52         C621   1.486       .  S
C53          C54   1.397       .  A
C53          H58   1.084   1_554  S
C54          C55   1.399       .  A
C54         C712   1.478       .  S
C55          C56   1.401       .  A
C55          H59   1.084       .  S
C56          C57   1.401       .  A
C56          C74   1.466       .  S
C57          H60   1.084       .  S
N61          N62   1.322       .  A
N61          C65   1.346       .  A
N61         Cu69   2.079       .  S
N62          C63   1.343       .  A
N62         Cu68   2.066       .  S
C63          C64   1.383       .  A
C63          H66   1.082       .  S
C64          C65   1.386       .  A
C65          H67   1.082       .  S
Cu68         N71   2.066       .  S
Cu69         N79   2.079       .  S
Cu70         N72   2.071       .  S
Cu70         N78   2.072       .  S
N71          N72   1.322       .  A
N71          C75   1.344       .  A
N72          C73   1.344       .  A
C73          C74   1.381       .  A
C73          H76   1.082       .  S
C74          C75   1.381       .  A
C75          H77   1.082       .  S
N78          N79   1.322       .  A
N78          C82   1.347       .  A
N79          C80   1.344       .  A
C80          C81   1.384       .  A
C80          H83   1.082       .  S
C81          C82   1.384       .  A
C81         C249   1.474       .  S
C82          H84   1.081       .  S
C85          C86   1.405       .  A
C85          C90   1.403       .  A
C85         C656   1.485       .  S
C86          C87   1.403       .  A
C86          H91   1.084       .  S
C87          C88   1.401       .  A
C87         C116   1.470       .  S
C88          C89   1.399       .  A
C88          H92   1.084       .  S
C89          C90   1.400       .  A
C89         C593   1.479       .  S
C90          H93   1.084       .  S
C94          C95   1.400       .  A
C94          C99   1.405       .  A
C94         C628   1.484       .  S
C95          C96   1.397       .  A
C95         H100   1.084       .  S
C96          C97   1.397       .  A
C96         C565   1.477       .  S
C97          C98   1.404       .  A
C97         H101   1.083       .  S
C98          C99   1.404       .  A
C98         C106   1.473       .  S
C99         H102   1.084       .  S
N103        N104   1.321       .  A
N103        C107   1.342       .  A
N103       Cu111   2.064       .  S
N104        C105   1.346       .  A
N104       Cu110   2.070       .  S
C105        C106   1.384       .  A
C105        H108   1.082       .  S
C106        C107   1.382       .  A
C107        H109   1.082       .  S
Cu110       N113   2.070       .  S
Cu111       N121   2.064       .  S
Cu112       N114   2.078       .  S
Cu112       N120   2.078       .  S
N113        N114   1.323       .  A
N113        C117   1.344       .  A
N114        C115   1.345       .  A
C115        C116   1.384       .  A
C115        H118   1.082       .  S
C116        C117   1.381       .  A
C117        H119   1.082       .  S
N120        N121   1.321       .  A
N120        C124   1.346       .  A
N121        C122   1.344       .  A
C122        C123   1.382       .  A
C122        H125   1.081       .  S
C123        C124   1.385       .  A
C123        C291   1.471       .  S
C124        H126   1.082       .  S
C127        C128   1.406       .  A
C127        C132   1.402       .  A
C127        C677   1.489       .  S
C128        C129   1.404       .  A
C128        H133   1.084       .  S
C129        C130   1.405       .  A
C129        C158   1.476       .  S
C130        C131   1.402       .  A
C130        H134   1.084       .  S
C131        C132   1.399       .  A
C131        C572   1.481       .  S
C132        H135   1.084       .  S
C136        C137   1.410       .  A
C136        C141   1.403       .  A
C136        C740   1.495       .  S
C137        C138   1.406       .  A
C137        H142   1.084       .  S
C138        C139   1.402       .  A
C138        C148   1.475       .  S
C139        C140   1.400       .  A
C139        H143   1.084       .  S
C140        C141   1.399       .  A
C140        C600   1.481       .  S
C141        H144   1.084       .  S
N145        N146   1.323       .  A
N145        C149   1.347       .  A
N145       Cu153   2.087       .  S
N146        C147   1.346       .  A
N146       Cu152   2.082       .  S
C147        C148   1.383       .  A
C147        H150   1.082       .  S
C148        C149   1.385       .  A
C149        H151   1.082       .  S
Cu152       N155   2.082       .  S
Cu153       N163   2.087       .  S
Cu154       N156   2.076       .  S
Cu154       N162   2.076       .  S
N155        N156   1.323       .  A
N155        C159   1.347       .  A
N156        C157   1.345       .  A
C157        C158   1.383       .  A
C157        H160   1.082       .  S
C158        C159   1.385       .  A
C159        H161   1.082       .  S
N162        N163   1.322       .  A
N162        C166   1.346       .  A
N163        C164   1.347       .  A
C164        C165   1.386       .  A
C164        H167   1.081       .  S
C165        C166   1.384       .  A
C165        C333   1.478       .  S
C166        H168   1.082       .  S
C169        C170   1.410       .  A
C169        C174   1.405       .  A
C169        C516   1.497       .  S
C170        C171   1.408       .  A
C170        H175   1.083       .  S
C171        C172   1.402       .  A
C171        C200   1.479       .  S
C172        C173   1.396       .  A
C172        H176   1.084       .  S
C173        C174   1.399       .  A
C173        C537   1.480       .  S
C174        H177   1.084       .  S
C178        C179   1.403       .  A
C178        C183   1.403       .  A
C178        C453   1.484       .  S
C179        C180   1.399       .  A
C179        H184   1.084       .  S
C180        C181   1.401       .  A
C180        C190   1.466       .  S
C181        C182   1.399       .  A
C181        H185   1.084       .  S
C182        C183   1.400       .  A
C182        C481   1.480       .  S
C183        H186   1.084       .  S
N187        N188   1.323       .  A
N187        C191   1.341       .  A
N187       Cu195   2.056       .  S
N188        C189   1.345       .  A
N188       Cu194   2.072       .  S
C189        C190   1.383       .  A
C189        H192   1.082       .  S
C190        C191   1.378       .  A
C191        H193   1.082       .  S
Cu194       N197   2.071       .  S
Cu195       N205   2.055       .  S
Cu196       N198   2.082       .  S
Cu196       N204   2.080       .  S
N197        N198   1.322       .  A
N197        C201   1.346       .  A
N198        C199   1.344       .  A
C199        C200   1.387       .  A
C199        H202   1.082       .  S
C200        C201   1.384       .  A
C201        H203   1.082       .  S
N204        N205   1.321       .  A
N204        C208   1.344   1_455  A
N205        C206   1.344   1_455  A
C206        C207   1.382       .  A
C206        H209   1.081       .  S
C207        C208   1.385       .  A
C208        H210   1.082       .  S
C211        C212   1.409       .  A
C211        C216   1.404       .  A
C211        C432   1.491       .  S
C212        C213   1.406       .  A
C212        H217   1.084       .  S
C213        C214   1.402       .  A
C213        C242   1.474       .  S
C214        C215   1.400       .  A
C214        H218   1.084       .  S
C215        C216   1.399       .  A
C215        C488   1.484       .  S
C216        H219   1.084   1_554  S
C220        C221   1.408       .  A
C220        C225   1.404       .  A
C220        C404   1.494       .  S
C221        C222   1.404       .  A
C221        H226   1.084       .  S
C222        C223   1.403       .  A
C222        C232   1.476       .  S
C223        C224   1.398       .  A
C223        H227   1.084       .  S
C224        C225   1.400       .  A
C224        C544   1.481       .  S
C225        H228   1.084       .  S
N229        N230   1.323       .  A
N229        C233   1.343       .  A
N229       Cu237   2.067       .  S
N230        C231   1.348       .  A
N230       Cu236   2.086       .  S
C231        C232   1.386       .  A
C231        H234   1.082       .  S
C232        C233   1.381       .  A
C233        H235   1.082       .  S
Cu236       N239   2.087       .  S
Cu237       N247   2.066       .  S
Cu238       N240   2.080       .  S
Cu238       N246   2.079       .  S
N239        N240   1.324       .  A
N239        C243   1.350       .  A
N240        C241   1.343       .  A
C241        C242   1.382       .  A
C241        H244   1.082       .  S
C242        C243   1.385       .  A
C243        H245   1.082       .  S
N246        N247   1.320       .  A
N246        C250   1.348   1_455  A
N247        C248   1.344   1_455  A
C248        C249   1.383       .  A
C248        H251   1.081       .  S
C249        C250   1.386       .  A
C250        H252   1.082       .  S
C253        C254   1.398       .  A
C253        C258   1.403       .  A
C253        C397   1.483       .  S
C254        C255   1.399       .  A
C254        H259   1.084       .  S
C255        C256   1.404       .  A
C255        C284   1.473       .  S
C256        C257   1.409       .  A
C256        H260   1.082       .  S
C257        C258   1.408       .  A
C257        C369   1.504       .  S
C258        H261   1.083       .  S
C262        C263   1.409       .  A
C262        C267   1.399       .  A
C262        C425   1.495       .  S
C263        C264   1.409       .  A
C263        H268   1.083       .  S
C264        C265   1.404       .  A
C264        C274   1.480       .  S
C265        C266   1.400       .  A
C265        H269   1.083       .  S
C266        C267   1.395       .  A
C266        C341   1.478       .  S
C267        H270   1.084       .  S
N271        N272   1.322       .  A
N271        C275   1.347       .  A
N271       Cu279   2.084       .  S
N272        C273   1.345       .  A
N272       Cu278   2.073       .  S
C273        C274   1.383       .  A
C273        H276   1.082       .  S
C274        C275   1.388       .  A
C275        H277   1.082       .  S
Cu278       N281   2.072       .  S
Cu279       N289   2.084       .  S
Cu280       N282   2.067       .  S
Cu280       N288   2.067       .  S
N281        N282   1.321       .  A
N281        C285   1.343       .  A
N282        C283   1.345       .  A
C283        C284   1.384       .  A
C283        H286   1.082       .  S
C284        C285   1.384       .  A
C285        H287   1.082       .  S
N288        N289   1.323       .  A
N288        C292   1.344       .  A
N289        C290   1.346       .  A
C290        C291   1.385       .  A
C290        H293   1.082       .  S
C291        C292   1.381       .  A
C292        H294   1.081       .  S
C295        C296   1.405       .  A
C295        C300   1.404       .  A
C295        C509   1.492       .  S
C296        C297   1.405       .  A
C296        H301   1.084       .  S
C297        C298   1.403       .  A
C297        C316   1.480       .  S
C298        C299   1.409       .  A
C298        H302   1.082       .  S
C299        C300   1.409       .  A
C299        C376   1.508       .  S
C300        H303   1.082       .  S
C304        C305   1.401       .  A
C304        C309   1.405       .  A
C304        C460   1.488       .  S
C305        C306   1.396       .  A
C305        H310   1.084       .  S
C306        C307   1.400       .  A
C306        C348   1.477       .  S
C307        C308   1.404       .  A
C307        H311   1.084       .  S
C308        C309   1.406       .  A
C308        C326   1.477       .  S
C309        H312   1.084       .  S
N313        N314   1.322       .  A
N313        C317   1.346       .  A
N313       Cu321   2.083       .  S
N314        C315   1.346       .  A
N314       Cu320   2.074       .  S
C315        C316   1.385       .  A
C315        H318   1.082       .  S
C316        C317   1.387       .  A
C317        H319   1.082       .  S
Cu320       N323   2.073       .  S
Cu321       N331   2.083       .  S
Cu322       N324   2.083       .  S
Cu322       N330   2.083       .  S
N323        N324   1.323       .  A
N323        C327   1.345       .  A
N324        C325   1.346       .  A
C325        C326   1.386       .  A
C325        H328   1.082       .  S
C326        C327   1.383       .  A
C327        H329   1.082       .  S
N330        N331   1.323       .  A
N330        C334   1.347       .  A
N331        C332   1.347       .  A
C332        C333   1.384       .  A
C332        H335   1.082       .  S
C333        C334   1.386       .  A
C334        H336   1.081       .  S
C337        C338   1.409       .  A
C337        C342   1.407       .  A
C337        C355   1.450       .  S
C338        C339   1.411       .  A
C338        C343   1.488       .  S
C339        C340   1.408       .  A
C339        C344   1.451   1_556  S
C340        C341   1.411       .  A
C340        C356   1.451       .  S
C341        C342   1.411       .  A
C342        C345   1.451       .  S
C343        C346   1.411       .  A
C343        C350   1.409   1_556  A
C344        N361   1.157       .  T
C345        N363   1.157       .  T
C346        C347   1.409       .  A
C346        C351   1.450       .  S
C347        C348   1.410   1_556  A
C347        C353   1.450       .  S
C348        C349   1.412       .  A
C349        C350   1.406       .  A
C349        C352   1.451       .  S
C350        C354   1.451       .  S
C351        N358   1.157       .  T
C352        N359   1.157       .  T
C353        N357   1.157       .  T
C354        N360   1.157       .  T
C355        N364   1.157       .  T
C356        N362   1.157       .  T
C365        C366   1.412       .  A
C365        C370   1.408       .  A
C365        C383   1.452       .  S
C366        C367   1.413       .  A
C366        C371   1.503       .  S
C367        C368   1.411       .  A
C367        C372   1.452       .  S
C368        C369   1.420       .  A
C368        C384   1.450       .  S
C369        C370   1.421       .  A
C370        C373   1.452       .  S
C371        C374   1.413       .  A
C371        C378   1.411       .  A
C372        N389   1.157       .  T
C373        N391   1.157       .  T
C374        C375   1.410       .  A
C374        C379   1.453       .  S
C375        C376   1.421       .  A
C375        C381   1.449       .  S
C376        C377   1.423       .  A
C377        C378   1.409       .  A
C377        C380   1.452       .  S
C378        C382   1.452       .  S
C379        N386   1.157       .  T
C380        N387   1.158       .  T
C381        N385   1.157       .  T
C382        N388   1.157       .  T
C383        N392   1.157       .  T
C384        N390   1.157       .  T
C393        C394   1.412       .  A
C393        C398   1.408       .  A
C393        C411   1.451       .  S
C394        C395   1.412       .  A
C394        C399   1.494       .  S
C395        C396   1.410       .  A
C395        C400   1.450       .  S
C396        C397   1.412       .  A
C396        C412   1.450       .  S
C397        C398   1.412       .  A
C398        C401   1.451       .  S
C399        C402   1.410       .  A
C399        C406   1.409       .  A
C400        N417   1.157       .  T
C401        N419   1.157       .  T
C402        C403   1.410       .  A
C402        C407   1.451       .  S
C403        C404   1.416       .  A
C403        C409   1.451       .  S
C404        C405   1.418       .  A
C405        C406   1.409       .  A
C405        C408   1.450       .  S
C406        C410   1.452       .  S
C407        N414   1.157       .  T
C408        N415   1.157       .  T
C409        N413   1.157       .  T
C410        N416   1.157       .  T
C411        N420   1.157       .  T
C412        N418   1.157       .  T
C421        C422   1.411       .  A
C421        C426   1.409       .  A
C421        C439   1.452   1_556  S
C422        C423   1.411       .  A
C422        C427   1.498       .  S
C423        C424   1.412       .  A
C423        C428   1.450       .  S
C424        C425   1.416       .  A
C424        C440   1.451       .  S
C425        C426   1.419       .  A
C426        C429   1.453   1_556  S
C427        C430   1.411   1_556  A
C427        C434   1.413       .  A
C428        N445   1.157       .  T
C429        N447   1.158       .  T
C430        C431   1.408       .  A
C430        C435   1.451       .  S
C431        C432   1.414       .  A
C431        C437   1.451       .  S
C432        C433   1.414   1_554  A
C433        C434   1.413       .  A
C433        C436   1.451       .  S
C434        C438   1.451       .  S
C435        N442   1.157       .  T
C436        N443   1.157       .  T
C437        N441   1.157       .  T
C438        N444   1.157       .  T
C439        N448   1.157       .  T
C440        N446   1.157       .  T
C449        C450   1.410       .  A
C449        C454   1.407       .  A
C449        C467   1.451       .  S
C450        C451   1.410   1_556  A
C450        C455   1.490   1_556  S
C451        C452   1.408       .  A
C451        C456   1.451       .  S
C452        C453   1.415   1_554  A
C452        C468   1.452       .  S
C453        C454   1.413       .  A
C454        C457   1.451       .  S
C455        C458   1.409       .  A
C455        C462   1.410       .  A
C456        N473   1.157       .  T
C457        N475   1.157       .  T
C458        C459   1.408       .  A
C458        C463   1.451       .  S
C459        C460   1.416       .  A
C459        C465   1.451       .  S
C460        C461   1.414       .  A
C461        C462   1.409       .  A
C461        C464   1.451       .  S
C462        C466   1.451       .  S
C463        N470   1.157       .  T
C464        N471   1.157       .  T
C465        N469   1.157       .  T
C466        N472   1.157   1_554  T
C467        N476   1.157       .  T
C468        N474   1.157       .  T
C477        C478   1.411   1_545  A
C477        C482   1.408       .  A
C477        C495   1.450   1_556  S
C478        C479   1.411   1_565  A
C478        C483   1.491       .  S
C479        C480   1.408       .  A
C479        C484   1.451   1_545  S
C480        C481   1.412       .  A
C480        C496   1.451       .  S
C481        C482   1.412       .  A
C482        C485   1.451       .  S
C483        C486   1.410       .  A
C483        C490   1.410   1_556  A
C484        N501   1.157       .  T
C485        N503   1.157   1_556  T
C486        C487   1.410       .  A
C486        C491   1.450       .  S
C487        C488   1.412   1_556  A
C487        C493   1.450       .  S
C488        C489   1.414       .  A
C489        C490   1.408       .  A
C489        C492   1.451       .  S
C490        C494   1.451       .  S
C491        N498   1.157       .  T
C492        N499   1.157       .  T
C493        N497   1.157       .  T
C494        N500   1.157       .  T
C495        N504   1.157   1_545  T
C496        N502   1.157       .  T
C505        C506   1.416       .  A
C505        C510   1.415       .  A
C505        C523   1.450       .  S
C506        C507   1.412       .  A
C506        C511   1.505       .  S
C507        C508   1.410       .  A
C507        C512   1.451       .  S
C508        C509   1.414       .  A
C508        C524   1.450       .  S
C509        C510   1.412       .  A
C510        C513   1.450       .  S
C511        C514   1.415       .  A
C511        C518   1.413       .  A
C512        N529   1.157       .  T
C513        N531   1.157       .  T
C514        C515   1.412       .  A
C514        C519   1.451       .  S
C515        C516   1.416       .  A
C515        C521   1.452       .  S
C516        C517   1.415       .  A
C517        C518   1.413       .  A
C517        C520   1.450       .  S
C518        C522   1.450       .  S
C519        N526   1.157       .  T
C520        N527   1.157       .  T
C521        N525   1.157       .  T
C522        N528   1.157       .  T
C523        N532   1.157       .  T
C524        N530   1.157       .  T
C533        C534   1.411       .  A
C533        C538   1.409       .  A
C533        C551   1.450       .  S
C534        C535   1.411       .  A
C534        C539   1.491   1_545  S
C535        C536   1.409       .  A
C535        C540   1.451   1_545  S
C536        C537   1.412       .  A
C536        C552   1.451       .  S
C537        C538   1.410       .  A
C538        C541   1.450       .  S
C539        C542   1.409       .  A
C539        C546   1.412       .  A
C540        N557   1.157       .  T
C541        N559   1.157       .  T
C542        C543   1.406       .  A
C542        C547   1.451       .  S
C543        C544   1.412       .  A
C543        C549   1.451       .  S
C544        C545   1.410       .  A
C545        C546   1.412       .  A
C545        C548   1.449       .  S
C546        C550   1.450       .  S
C547        N554   1.157   1_565  T
C548        N555   1.157       .  T
C549        N553   1.157       .  T
C550        N556   1.157       .  T
C551        N560   1.157       .  T
C552        N558   1.157       .  T
C561        C562   1.412       .  A
C561        C566   1.409       .  A
C561        C579   1.450   1_556  S
C562        C563   1.412       .  A
C562        C567   1.492       .  S
C563        C564   1.407       .  A
C563        C568   1.450       .  S
C564        C565   1.410       .  A
C564        C580   1.451       .  S
C565        C566   1.409       .  A
C566        C569   1.450       .  S
C567        C570   1.411       .  A
C567        C574   1.410   1_556  A
C568        N585   1.157       .  T
C569        N587   1.157       .  T
C570        C571   1.410   1_556  A
C570        C575   1.450       .  S
C571        C572   1.411       .  A
C571        C577   1.450   1_554  S
C572        C573   1.412       .  A
C573        C574   1.408       .  A
C573        C576   1.451       .  S
C574        C578   1.451       .  S
C575        N582   1.157       .  T
C576        N583   1.157       .  T
C577        N581   1.157       .  T
C578        N584   1.157       .  T
C579        N588   1.157       .  T
C580        N586   1.157       .  T
C589        C590   1.410       .  A
C589        C594   1.409       .  A
C589        C607   1.451       .  S
C590        C591   1.411       .  A
C590        C595   1.492       .  S
C591        C592   1.409       .  A
C591        C596   1.450       .  S
C592        C593   1.409       .  A
C592        C608   1.450       .  S
C593        C594   1.412       .  A
C594        C597   1.451       .  S
C595        C598   1.411       .  A
C595        C602   1.410       .  A
C596        N613   1.157       .  T
C597        N615   1.157       .  T
C598        C599   1.409       .  A
C598        C603   1.450       .  S
C599        C600   1.410       .  A
C599        C605   1.450       .  S
C600        C601   1.412       .  A
C601        C602   1.408       .  A
C601        C604   1.451       .  S
C602        C606   1.450       .  S
C603        N610   1.157       .  T
C604        N611   1.157       .  T
C605        N609   1.157       .  T
C606        N612   1.157       .  T
C607        N616   1.157       .  T
C608        N614   1.157       .  T
C617        C618   1.410       .  A
C617        C622   1.406       .  A
C617        C635   1.451       .  S
C618        C619   1.410   1_556  A
C618        C623   1.491       .  S
C619        C620   1.409       .  A
C619        C624   1.451       .  S
C620        C621   1.416       .  A
C620        C636   1.451       .  S
C621        C622   1.414   1_554  A
C622        C625   1.452       .  S
C623        C626   1.409       .  A
C623        C630   1.411       .  A
C624        N641   1.157       .  T
C625        N643   1.157       .  T
C626        C627   1.408       .  A
C626        C631   1.451       .  S
C627        C628   1.414       .  A
C627        C633   1.451       .  S
C628        C629   1.414       .  A
C629        C630   1.408       .  A
C629        C632   1.451       .  S
C630        C634   1.451       .  S
C631        N638   1.157       .  T
C632        N639   1.157       .  T
C633        N637   1.157       .  T
C634        N640   1.157       .  T
C635        N644   1.157       .  T
C636        N642   1.157       .  T
C645        C646   1.411       .  A
C645        C650   1.410       .  A
C645        C663   1.451       .  S
C646        C647   1.411       .  A
C646        C651   1.498       .  S
C647        C648   1.411       .  A
C647        C652   1.451       .  S
C648        C649   1.417       .  A
C648        C664   1.451       .  S
C649        C650   1.415       .  A
C650        C653   1.451       .  S
C651        C654   1.413       .  A
C651        C658   1.412       .  A
C652        N669   1.157       .  T
C653        N671   1.157       .  T
C654        C655   1.411       .  A
C654        C659   1.450       .  S
C655        C656   1.412       .  A
C655        C661   1.451       .  S
C656        C657   1.412       .  A
C657        C658   1.409       .  A
C657        C660   1.451       .  S
C658        C662   1.451       .  S
C659        N666   1.157       .  T
C660        N667   1.157       .  T
C661        N665   1.157       .  T
C662        N668   1.157       .  T
C663        N672   1.157       .  T
C664        N670   1.157       .  T
C673        C674   1.411       .  A
C673        C678   1.411       .  A
C673        C691   1.450       .  S
C674        C675   1.412       .  A
C674        C679   1.496       .  S
C675        C676   1.409       .  A
C675        C680   1.451       .  S
C676        C677   1.414       .  A
C676        C692   1.451       .  S
C677        C678   1.414       .  A
C678        C681   1.451       .  S
C679        C682   1.413   1_554  A
C679        C686   1.411       .  A
C680        N697   1.157       .  T
C681        N699   1.157       .  T
C682        C683   1.411       .  A
C682        C687   1.450       .  S
C683        C684   1.413       .  A
C683        C689   1.451       .  S
C684        C685   1.412   1_556  A
C685        C686   1.408       .  A
C685        C688   1.451       .  S
C686        C690   1.451       .  S
C687        N694   1.157       .  T
C688        N695   1.157       .  T
C689        N693   1.157       .  T
C690        N696   1.157       .  T
C691        N700   1.157       .  T
C692        N698   1.157       .  T
C701        C702   1.412   1_545  A
C701        C706   1.408       .  A
C701        C719   1.451   1_545  S
C702        C703   1.413   1_566  A
C702        C707   1.493       .  S
C703        C704   1.409       .  A
C703        C708   1.450       .  S
C704        C705   1.409   1_554  A
C704        C720   1.450       .  S
C705        C706   1.411       .  A
C706        C709   1.451       .  S
C707        C710   1.413       .  A
C707        C714   1.412   1_556  A
C708        N725   1.157   1_545  T
C709        N727   1.157       .  T
C710        C711   1.409       .  A
C710        C715   1.450       .  S
C711        C712   1.409   1_556  A
C711        C717   1.450       .  S
C712        C713   1.410       .  A
C713        C714   1.408       .  A
C713        C716   1.452       .  S
C714        C718   1.450       .  S
C715        N722   1.157       .  T
C716        N723   1.157       .  T
C717        N721   1.157       .  T
C718        N724   1.157       .  T
C719        N728   1.157       .  T
C720        N726   1.157       .  T
C729        C730   1.411       .  A
C729        C734   1.411       .  A
C729        C747   1.451       .  S
C730        C731   1.411       .  A
C730        C735   1.498       .  S
C731        C732   1.410       .  A
C731        C736   1.451       .  S
C732        C733   1.415       .  A
C732        C748   1.451       .  S
C733        C734   1.415       .  A
C734        C737   1.451       .  S
C735        C738   1.410       .  A
C735        C742   1.411       .  A
C736        N753   1.157       .  T
C737        N755   1.157       .  T
C738        C739   1.412       .  A
C738        C743   1.451       .  S
C739        C740   1.418       .  A
C739        C745   1.451       .  S
C740        C741   1.415       .  A
C741        C742   1.410       .  A
C741        C744   1.451       .  S
C742        C746   1.451       .  S
C743        N750   1.157       .  T
C744        N751   1.157       .  T
C745        N749   1.157       .  T
C746        N752   1.157       .  T
C747        N756   1.157       .  T
C748        N754   1.157       .  T
C757        C758   1.413       .  A
C757        C762   1.412       .  A
C757        C775   1.451       .  S
C758        C759   1.411       .  A
C758        C763   1.496       .  S
C759        C760   1.408       .  A
C759        C764   1.451       .  S
C760        C761   1.412       .  A
C760        C776   1.451       .  S
C761        C762   1.411       .  A
C762        C765   1.450       .  S
C763        C766   1.414   1_565  A
C763        C770   1.412   1_565  A
C764        N781   1.157   1_565  T
C765        N783   1.157       .  T
C766        C767   1.411       .  A
C766        C771   1.450       .  S
C767        C768   1.410       .  A
C767        C773   1.450       .  S
C768        C769   1.410       .  A
C769        C770   1.408       .  A
C769        C772   1.451       .  S
C770        C774   1.451   1_545  S
C771        N778   1.157       .  T
C772        N779   1.157       .  T
C773        N777   1.157       .  T
C774        N780   1.157       .  T
C775        N784   1.157       .  T
C776        N782   1.157       .  T
