geometry optimzed in LAMMPS
_audit_creation_date              2020-11-30 
_audit_creation_method            'lammps2cif' 
_symmetry_space_group_name_H-M    'P1' 
_symmetry_Int_Tables_number       1 
_symmetry_cell_setting            triclinic 
loop_ 
_symmetry_equiv_pos_as_xyz 
  x,y,z 
_cell_length_a                    42.69865105 
_cell_length_b                    42.90322985175673 
_cell_length_c                    42.665508735738236 
_cell_angle_alpha                 89.91465419457752 
_cell_angle_beta                  90.2273488280195 
_cell_angle_gamma                 90.44595618720841 
loop_ 
_atom_site_label 
_atom_site_type_symbol 
_atom_site_fract_x 
_atom_site_fract_y 
_atom_site_fract_z 
_atom_site_charge 
O1          O  0.53165793  0.04514188  0.83762147    -0.85700
O2          O  0.52368488  0.04629602  0.65878934    -0.85900
O3          O  0.58966544  0.03883333  0.74079185    -0.87600
O4          O  0.51736042  0.10898045  0.75678000    -0.86300
O5          O  0.46356992  0.10782794  0.75740006    -0.85900
O6          O  0.58988708  0.98538991  0.74166747    -0.87300
O7          O  0.55012679  0.07390618  0.69656529    -0.85800
O8          O  0.55859977  0.07018531  0.79832605    -0.85300
Zr9        Zr  0.53512494  0.05518539  0.74863195     2.84300
O10         O  0.48896918  0.05582963  0.71840423    -1.07300
O11         O  0.53662333  0.01057572  0.78065322    -1.08000
C12         C  0.55304546  0.06417862  0.82742689     1.07400
C13         C  0.54413662  0.06696550  0.66761218     1.07300
C14         C  0.60369858  0.01226321  0.73851728     1.10300
C15         C  0.49032200  0.12215350  0.75974270     1.08100
H16         H  0.55090428  0.01115947  0.70288500     0.33600
O17         O  0.53327965  0.01087449  0.71704350    -1.28300
H18         H  0.49235503  0.07128666  0.79598059     0.33300
O19         O  0.49184930  0.05336364  0.78233395    -1.29900
O20         O  0.45275877  0.97257969  0.66184028    -0.85700
O21         O  0.45475193  0.97530112  0.84124759    -0.87200
O22         O  0.55067831  0.94810280  0.69730670    -0.85800
O23         O  0.42488928  0.07473577  0.70459635    -0.85800
O24         O  0.42852525  0.07032107  0.80286884    -0.85600
O25         O  0.55985272  0.95036725  0.79775749    -0.85400
O26         O  0.46452763  0.91041348  0.75640114    -0.85700
O27         O  0.39226333  0.98063223  0.74738178    -0.85200
O28         O  0.51810037  0.91129173  0.75293594    -0.86300
O29         O  0.39129284  0.03405720  0.74986456    -0.85400
O30         O  0.52290696  0.97538144  0.66001370    -0.85800
O31         O  0.53127347  0.97252462  0.83736487    -0.85500
O32         O  0.45760826  0.04606811  0.84107285    -0.85200
O33         O  0.44884151  0.04811761  0.66503194    -0.85600
O34         O  0.43133659  0.94240280  0.70091645    -0.85900
O35         O  0.42585546  0.95059219  0.80309420    -0.87200
Zr36       Zr  0.48759269  0.01113375  0.68660449     2.83100
Zr37       Zr  0.49310239  0.00919250  0.81447373     2.83500
Zr38       Zr  0.53574404  0.96625630  0.74871701     2.84100
Zr39       Zr  0.44584687  0.05328660  0.75233598     2.83400
Zr40       Zr  0.44670470  0.96434049  0.75166692     2.84200
O41         O  0.44725642  0.00859514  0.78384175    -1.07800
O42         O  0.48995010  0.96612090  0.71824755    -1.07300
C43         C  0.43595650  0.94933844  0.67176631     1.07400
C44         C  0.43213699  0.95709003  0.83205011     1.10000
C45         C  0.54325763  0.95498344  0.66885287     1.07500
C46         C  0.42922063  0.06866537  0.67546820     1.07900
C47         C  0.43643482  0.06555818  0.83156237     1.07500
C48         C  0.55335913  0.95471184  0.82690715     1.07000
C49         C  0.49148320  0.89684448  0.75649804     1.07400
C50         C  0.37783819  0.00701312  0.74681853     1.07000
H51         H  0.49295556  0.94682386  0.79570758     0.33600
O52         O  0.49238111  0.96490158  0.78241908    -1.28900
H53         H  0.42600896  0.00885629  0.70716025     0.33700
O54         O  0.44469648  0.00915430  0.72009924    -1.30300
C55         C  0.65195863  0.20035434  0.50007134    -0.01700
O56         O  0.55999022  0.07716686  0.29509163    -0.85700
O57         O  0.43646130  0.94957573  0.30235666    -0.85900
O58         O  0.46087722  0.05201406  0.33393249    -0.87600
O59         O  0.53301093  0.97881160  0.33895745    -0.86300
O60         O  0.55757070  0.95077818  0.30086558    -0.85900
O61         O  0.43250865  0.07532959  0.29449851    -0.87300
O62         O  0.46112873  0.97931424  0.33966103    -0.85800
O63         O  0.53349189  0.05127710  0.33408895    -0.85300
Zr64       Zr  0.49677776  0.01400639  0.31114828     2.84300
O65         O  0.49617350  0.96743598  0.28221155    -1.07300
O66         O  0.49608247  0.05713732  0.27690995    -1.08000
C67         C  0.55382840  0.07146485  0.32423495     1.07400
C68         C  0.44193449  0.95744529  0.33109445     1.07300
C69         C  0.43981922  0.07100717  0.32351981     1.10300
C70         C  0.55247865  0.95767249  0.32977746     1.08100
H71         H  0.43415894  0.01251452  0.29282008     0.33600
O72         O  0.45218204  0.01211775  0.27926798    -1.28300
H73         H  0.55944219  0.01386436  0.29208871     0.33300
O74         O  0.54089730  0.01333292  0.27900935    -1.29900
O75         O  0.42819747  0.95007364  0.20075192    -0.85700
O76         O  0.56099492  0.07055289  0.19343127    -0.87200
O77         O  0.39669701  0.03572596  0.25079587    -0.85800
O78         O  0.52446405  0.91260126  0.24881494    -0.85800
O79         O  0.59391714  0.98567154  0.25038842    -0.85600
O80         O  0.46805318  0.10968215  0.24165186    -0.85400
O81         O  0.45948082  0.04179261  0.15553298    -0.85700
O82         O  0.53119630  0.96887718  0.16140201    -0.85200
O83         O  0.43149451  0.06811441  0.19268785    -0.86300
O84         O  0.55792256  0.94482227  0.20139353    -0.85400
O85         O  0.39716999  0.98246188  0.25530100    -0.85800
O86         O  0.52185185  0.11009463  0.23968603    -0.85500
O87         O  0.59525405  0.03913458  0.24719118    -0.85200
O88         O  0.47079034  0.91198965  0.24602484    -0.85600
O89         O  0.45600202  0.97361196  0.16094755    -0.85900
O90         O  0.53461362  0.04186633  0.15641136    -0.87200
Zr91       Zr  0.45166019  0.96605647  0.25007802     2.83100
Zr92       Zr  0.54075219  0.05642176  0.24500492     2.83500
Zr93       Zr  0.45104059  0.05488268  0.24504052     2.84100
Zr94       Zr  0.53997619  0.96740036  0.24966783     2.83400
Zr95       Zr  0.49607179  0.00824633  0.18364005     2.84200
O96         O  0.54083726  0.01025047  0.21555838    -1.07800
O97         O  0.45152334  0.00892254  0.21586405    -1.07300
C98         C  0.43388820  0.95576393  0.17164371     1.07400
C99         C  0.55562368  0.06231705  0.16479078     1.10000
C100        C  0.38297864  0.00899151  0.25534526     1.07500
C101        C  0.49788486  0.89843774  0.24544673     1.07900
C102        C  0.60837023  0.01220491  0.25010592     1.07500
C103        C  0.49488835  0.12373185  0.23907265     1.07000
C104        C  0.43799769  0.06108829  0.16393641     1.07400
C105        C  0.55117606  0.94891837  0.17229251     1.07000
H106        H  0.49563675  0.07181516  0.19905215     0.33600
O107        O  0.49580086  0.05431687  0.21314514    -1.28900
H108        H  0.49520776  0.94674436  0.20507687     0.33700
O109        O  0.49556470  0.96548692  0.21762452    -1.30300
C110        C  0.29457405  0.86011593  0.00142038    -0.01700
C111        C  0.68043296  0.85486338  0.00273989    -0.01700
C112        C  0.64394602  0.82304658  0.50131772    -0.01700
C113        C  0.30429446  0.16497306  0.99334080    -0.01700
C114        C  0.69085268  0.16505794  0.99501267    -0.01700
C115        C  0.33768800  0.19500539  0.49744143    -0.01700
C116        C  0.34005229  0.81727851  0.49644749    -0.01700
O117        O  0.89238983  0.77043943  0.46447071    -0.85700
O118        O  0.01751466  0.75863752  0.59104621    -0.85900
O119        O  0.92652287  0.71285969  0.55085357    -0.87600
O120        O  0.92861216  0.81537856  0.55429391    -0.86300
O121        O  0.95654113  0.85297059  0.52768465    -0.85900
O122        O  0.95494964  0.67491693  0.52659563    -0.87300
O123        O  0.96381236  0.75910149  0.59099977    -0.85800
O124        O  0.89256373  0.76922123  0.51811639    -0.85300
Zr125      Zr  0.94665146  0.76432127  0.53630878     2.84300
O126        O  0.99165294  0.79609394  0.53697333    -1.07300
O127        O  0.94607300  0.73259026  0.49160484    -1.08000
C128        C  0.87850047  0.77222963  0.49136540     1.07400
C129        C  0.99069351  0.75665526  0.60491593     1.07300
C130        C  0.93325417  0.68402706  0.54527553     1.10300
C131        C  0.93551055  0.84405351  0.54757212     1.08100
H132        H  0.99068306  0.71863231  0.55426587     0.33600
O133        O  0.99080924  0.73222648  0.53624325    -1.28300
H134        H  0.93016686  0.80922474  0.49162862     0.33300
O135        O  0.94822261  0.79591206  0.49168353    -1.29900
O136        O  0.09019032  0.76871654  0.52084792    -0.85700
O137        O  0.96603394  0.76178055  0.39302450    -0.87200
O138        O  0.02929463  0.67578937  0.52633370    -0.85800
O139        O  0.02979823  0.85257792  0.52932681    -0.85800
O140        O  0.95476756  0.85288408  0.45700439    -0.85600
O141        O  0.95085405  0.67648905  0.45724883    -0.85400
O142        O  0.05312389  0.71364851  0.42935743    -0.85700
O143        O  0.05383337  0.81425223  0.42759826    -0.85200
O144        O  0.02360697  0.67536869  0.45283916    -0.86300
O145        O  0.02719138  0.85312460  0.45276245    -0.85400
O146        O  0.05666323  0.71375729  0.55270400    -0.85800
O147        O  0.92523084  0.71459224  0.42956167    -0.85500
O148        O  0.93042928  0.81439145  0.42805998    -0.85200
O149        O  0.05196677  0.81351011  0.55872827    -0.85600
O150        O  0.09097227  0.76778799  0.46719445    -0.85900
O151        O  0.01981338  0.76190333  0.39419478    -0.87200
Zr152      Zr  0.03565478  0.76382493  0.53706456     2.83100
Zr153      Zr  0.94699327  0.76437422  0.44706427     2.83500
Zr154      Zr  0.99078968  0.70098072  0.49136802     2.84100
Zr155      Zr  0.99288117  0.82792165  0.49190681     2.83400
Zr156      Zr  0.03662780  0.76431314  0.44838643     2.84200
O157        O  0.99221105  0.79597861  0.44728768    -1.07800
O158        O  0.03636351  0.73201026  0.49248727    -1.07300
C159        C  0.10456705  0.77025284  0.49430544     1.07400
C160        C  0.99322745  0.76029666  0.37981525     1.10000
C161        C  0.05078652  0.68501500  0.54594227     1.07500
C162        C  0.04771321  0.84239401  0.55170691     1.07900
C163        C  0.93527737  0.84294218  0.43589519     1.07500
C164        C  0.93005495  0.68587607  0.43715889     1.07000
C165        C  0.04464533  0.68493981  0.43333980     1.07400
C166        C  0.04717088  0.84314662  0.43233163     1.07000
H167        H  0.99094551  0.71995709  0.42889207     0.33600
O168        O  0.99138432  0.73296867  0.44727425    -1.28900
H169        H  0.05525927  0.80935478  0.49291904     0.33700
O170        O  0.03690397  0.79609578  0.49275268    -1.30300
O171        O  0.89623430  0.25705124  0.47259042    -0.85700
O172        O  0.02322201  0.27185739  0.59767443    -0.85900
O173        O  0.93627584  0.21115378  0.56451617    -0.87600
O174        O  0.92823642  0.31172389  0.55892275    -0.86300
O175        O  0.95592074  0.35096859  0.53448782    -0.85900
O176        O  0.96174375  0.17439937  0.53558229    -0.87300
O177        O  0.96954053  0.27031045  0.59793581    -0.85800
O178        O  0.89784669  0.25483143  0.52638163    -0.85300
Zr179      Zr  0.95114548  0.26261513  0.54393004     2.84300
O180        O  0.99414522  0.29657643  0.54341281    -1.07300
O181        O  0.95100030  0.23185804  0.49874296    -1.08000
C182        C  0.88345939  0.25323720  0.49982695     1.07400
C183        C  0.99650632  0.27360708  0.61158785     1.07300
C184        C  0.94270944  0.18252209  0.55767719     1.10300
C185        C  0.93437373  0.34058306  0.55294375     1.08100
H186        H  0.99688412  0.22062221  0.56257168     0.33600
O187        O  0.99654222  0.23322206  0.54381212    -1.28300
H188        H  0.92907220  0.30668173  0.49887220     0.33300
O189        O  0.94922880  0.29431067  0.49904477    -1.29900
O190        O  0.09356590  0.25989262  0.52642613    -0.85700
O191        O  0.96813534  0.27026468  0.39960865    -0.87200
O192        O  0.03250749  0.17772173  0.53521747    -0.85800
O193        O  0.02881344  0.35575167  0.53290441    -0.85800
O194        O  0.95498553  0.35131773  0.46266361    -0.85600
O195        O  0.95895952  0.17665855  0.46198693    -0.85400
O196        O  0.05950989  0.21821730  0.43517974    -0.85700
O197        O  0.05385979  0.31873190  0.43580116    -0.85200
O198        O  0.03395977  0.17930735  0.46234671    -0.86300
O199        O  0.02373379  0.35569356  0.45946035    -0.85400
O200        O  0.05642424  0.21676747  0.56337458    -0.85800
O201        O  0.93374897  0.21418312  0.43356199    -0.85500
O202        O  0.92934754  0.31236994  0.43588723    -0.85200
O203        O  0.05749167  0.31936769  0.55995790    -0.85600
O204        O  0.09383545  0.26116495  0.47271981    -0.85900
O205        O  0.02183377  0.27255133  0.39992336    -0.87200
Zr206      Zr  0.03984001  0.26725452  0.54344724     2.83100
Zr207      Zr  0.95029470  0.26356810  0.45402211     2.83500
Zr208      Zr  0.99616073  0.20194040  0.49848366     2.84100
Zr209      Zr  0.99283578  0.32781078  0.49846301     2.83400
Zr210      Zr  0.03954900  0.26709165  0.45433356     2.84200
O211        O  0.99388009  0.29636882  0.45422143    -1.07800
O212        O  0.03935511  0.23578264  0.49892045    -1.07300
C213        C  0.10731505  0.25716686  0.49969543     1.07400
C214        C  0.99494588  0.27388829  0.38587374     1.10000
C215        C  0.05122393  0.18773435  0.55692792     1.07500
C216        C  0.04997189  0.34776719  0.55300563     1.07900
C217        C  0.93490131  0.34117589  0.44226456     1.07500
C218        C  0.93920087  0.18566522  0.44065465     1.07000
C219        C  0.05390436  0.18944206  0.44188035     1.07400
C220        C  0.04450455  0.34705646  0.43944701     1.07000
H221        H  0.99618126  0.22097294  0.43452304     0.33600
O222        O  0.99582339  0.23349746  0.45331525    -1.28900
H223        H  0.05792137  0.31260114  0.49834245     0.33700
O224        O  0.03970687  0.29911790  0.49867175    -1.30300
C225        C  0.80762892  0.51194020  0.65169491    -0.01700
C226        C  0.18491931  0.51883795  0.65340107    -0.01700
C227        C  0.83967980  0.01139957  0.31204670    -0.01700
C228        C  0.83996118  0.00790107  0.68914070    -0.01700
C229        C  0.79926737  0.50624559  0.34318351    -0.01700
C230        C  0.17940952  0.51532676  0.34286013    -0.01700
C231        C  0.14959014  0.01774734  0.31160080    -0.01700
C232        C  0.14656906  0.01403925  0.68486434    -0.01700
O233        O  0.73969124  0.61025827  0.97193358    -0.85700
O234        O  0.75256333  0.48321433  0.09365219    -0.85900
O235        O  0.69422158  0.56915310  0.06242115    -0.87600
O236        O  0.79571045  0.57235948  0.05883988    -0.86300
O237        O  0.83414002  0.54645722  0.03204617    -0.85900
O238        O  0.65536486  0.54608479  0.03288882    -0.87300
O239        O  0.75151741  0.53657825  0.09516501    -0.85800
O240        O  0.73871410  0.60851480  0.02553850    -0.85300
Zr241      Zr  0.74482380  0.55415570  0.04117531     2.84300
O242        O  0.77663425  0.51016409  0.03932600    -1.07300
O243        O  0.71336478  0.55511044  0.99644963    -1.08000
C244        C  0.73667886  0.62316647  0.99914683     1.07400
C245        C  0.75492171  0.50965257  0.10825882     1.07300
C246        C  0.66521933  0.56407097  0.05523426     1.10300
C247        C  0.82454430  0.56611918  0.05271333     1.08100
H248        H  0.70054764  0.50878413  0.05977230     0.33600
O249        O  0.71302857  0.50944236  0.04095537    -1.28300
H250        H  0.78985551  0.57491008  0.99729359     0.33300
O251        O  0.77709860  0.55619345  0.99667446    -1.29900
O252        O  0.74107618  0.41161042  0.01940971    -0.85700
O253        O  0.74758266  0.54144728  0.89685204    -0.87200
O254        O  0.65613296  0.47257759  0.03159337    -0.85800
O255        O  0.83409979  0.47665246  0.03334119    -0.85800
O256        O  0.83516437  0.54865723  0.95994686    -0.85600
O257        O  0.65664730  0.54933402  0.96070172    -0.85400
O258        O  0.69289753  0.45184123  0.92973065    -0.85700
O259        O  0.79538649  0.44780199  0.93316723    -0.85200
O260        O  0.65474688  0.47604382  0.95829493    -0.86300
O261        O  0.83406520  0.47456393  0.95925643    -0.85400
O262        O  0.69506851  0.44724251  0.05829084    -0.85800
O263        O  0.69473891  0.57659424  0.93411799    -0.85500
O264        O  0.79692468  0.57739758  0.93588448    -0.85200
O265        O  0.79596740  0.44644764  0.05658098    -0.85600
O266        O  0.73768748  0.41369935  0.96568785    -0.85900
O267        O  0.74761622  0.48800673  0.89668175    -0.87200
Zr268      Zr  0.74532158  0.46544859  0.03916519     2.83100
Zr269      Zr  0.74529324  0.55717960  0.95190861     2.83500
Zr270      Zr  0.68097804  0.51083358  0.99587497     2.84100
Zr271      Zr  0.80871089  0.51131385  0.99500755     2.83400
Zr272      Zr  0.74434956  0.46800369  0.94987621     2.84200
O273        O  0.77655317  0.51251228  0.95043953    -1.07800
O274        O  0.71313828  0.46691619  0.99469449    -1.07300
C275        C  0.73738460  0.39889805  0.99207164     1.07400
C276        C  0.74905025  0.51478680  0.88285368     1.10000
C277        C  0.66600677  0.45232617  0.05197785     1.07500
C278        C  0.82471741  0.45482666  0.05220889     1.07900
C279        C  0.82602770  0.57071240  0.94131527     1.07500
C280        C  0.66587247  0.57039938  0.94083622     1.07000
C281        C  0.66389375  0.45729686  0.93645822     1.07400
C282        C  0.82459638  0.45351629  0.93957915     1.07000
H283        H  0.70000124  0.51318316  0.93228173     0.33600
O284        O  0.71292408  0.51257117  0.95094031    -1.28900
H285        H  0.78935912  0.44779801  0.99403939     0.33700
O286        O  0.77678817  0.46633246  0.99431962    -1.30300
O287        O  0.24979395  0.61233381  0.97376585    -0.85700
O288        O  0.24522657  0.48371014  0.09834751    -0.85900
O289        O  0.19667273  0.57464592  0.06607955    -0.87600
O290        O  0.29737076  0.57338616  0.06630093    -0.86300
O291        O  0.33646095  0.54927906  0.03895327    -0.85900
O292        O  0.15908069  0.54543051  0.04107306    -0.87300
O293        O  0.24435840  0.53727201  0.09876902    -0.85800
O294        O  0.24964894  0.61256833  0.02758511    -0.85300
Zr295      Zr  0.24680778  0.55742957  0.04535683     2.84300
O296        O  0.27910463  0.51328836  0.04412514    -1.07300
O297        O  0.21332902  0.55787822  0.00176451    -1.08000
C298        C  0.25156468  0.62628852  0.00045957     1.07400
C299        C  0.24297694  0.51033451  0.11239101     1.07300
C300        C  0.16796304  0.56603633  0.06153121     1.10300
C301        C  0.32650098  0.56788581  0.06070744     1.08100
H302        H  0.20322882  0.51043224  0.06330779     0.33600
O303        O  0.21620255  0.51156753  0.04488792    -1.28300
H304        H  0.29132724  0.57730212  0.00065466     0.33300
O305        O  0.27820388  0.55882477  0.00056235    -1.29900
O306        O  0.25407484  0.41376423  0.02423232    -0.85700
O307        O  0.24020826  0.54280239  0.90238005    -0.87200
O308        O  0.15841612  0.47184931  0.03451723    -0.85800
O309        O  0.33804891  0.47799249  0.03356418    -0.85800
O310        O  0.33391169  0.55261275  0.96206309    -0.85600
O311        O  0.15508904  0.54874363  0.96745140    -0.85400
O312        O  0.19512168  0.45148403  0.93603078    -0.85700
O313        O  0.29693284  0.45745039  0.93240941    -0.85200
O314        O  0.15736805  0.47785035  0.96313100    -0.86300
O315        O  0.33617299  0.48230948  0.95957188    -0.85400
O316        O  0.19788797  0.44443801  0.05825937    -0.85800
O317        O  0.19276419  0.57698440  0.94172465    -0.85500
O318        O  0.29384420  0.57543175  0.93445851    -0.85200
O319        O  0.30012153  0.45157933  0.06085683    -0.85600
O320        O  0.25319024  0.41502589  0.97049392    -0.85900
O321        O  0.24295185  0.48942496  0.90009803    -0.87200
Zr322      Zr  0.24838706  0.46754733  0.04331227     2.83100
Zr323      Zr  0.24462135  0.55853840  0.95690909     2.83500
Zr324      Zr  0.18297241  0.51188623  0.00141805     2.84100
Zr325      Zr  0.31091222  0.51520586  0.99932925     2.83400
Zr326      Zr  0.24636370  0.46987393  0.95428685     2.84200
O327        O  0.27734855  0.51512977  0.95544810    -1.07800
O328        O  0.21527293  0.46767018  0.99941555    -1.07300
C329        C  0.25602755  0.40047079  0.99703933     1.07400
C330        C  0.23998888  0.51670786  0.88737819     1.10000
C331        C  0.16862030  0.44957660  0.05225891     1.07500
C332        C  0.32902761  0.45755030  0.05406234     1.07900
C333        C  0.32306168  0.57090062  0.94044015     1.07500
C334        C  0.16386506  0.57009456  0.94781140     1.07000
C335        C  0.16628752  0.45826675  0.94198817     1.07400
C336        C  0.32605433  0.46390040  0.93760396     1.07000
H337        H  0.20023619  0.51390938  0.93822335     0.33600
O338        O  0.21380123  0.51348327  0.95631775    -1.28900
H339        H  0.29319741  0.45236551  0.99740895     0.33700
O340        O  0.27953032  0.47001376  0.99827475    -1.30300
C341        C  0.99890970  0.70460139  0.83936069    -0.01700
C342        C  0.99962063  0.31868652  0.84740127    -0.01700
C343        C  0.49497674  0.66019330  0.80333938    -0.01700
C344        C  0.49894942  0.66705263  0.18991841    -0.01700
C345        C  0.99379893  0.31840943  0.14871190    -0.01700
C346        C  0.99353277  0.69751000  0.14879524    -0.01700
C347        C  0.48999313  0.35822698  0.80211598    -0.01700
C348        C  0.49871512  0.35765507  0.19088796    -0.01700
O349        O  0.55285039  0.43388325  0.53679763    -0.85700
O350        O  0.47036488  0.50377175  0.39713891    -0.85900
O351        O  0.47743948  0.41051885  0.46606221    -0.87600
O352        O  0.56227018  0.46285809  0.43331002    -0.86300
O353        O  0.58043304  0.51245841  0.44309803    -0.85900
O354        O  0.43628419  0.42338039  0.49762034    -0.87300
O355        O  0.49864272  0.45941462  0.40663894    -0.85800
O356        O  0.54322158  0.41824687  0.48624389    -0.85300
Zr357      Zr  0.51171330  0.45748915  0.46143950     2.84300
O358        O  0.51312540  0.50967322  0.44576318    -1.07300
O359        O  0.49199424  0.45568820  0.51227877    -1.08000
C360        C  0.55517935  0.41439300  0.51365353     1.07400
C361        C  0.48488637  0.47892458  0.38837645     1.07300
C362        C  0.45205015  0.40370328  0.48149977     1.10300
C363        C  0.58207588  0.48572219  0.42983416     1.08100
H364        H  0.44753754  0.46645811  0.44833296     0.33600
O365        O  0.46090649  0.47834922  0.46231361    -1.28300
H366        H  0.56593482  0.47796781  0.49353425     0.33300
O367        O  0.54509514  0.48658662  0.49398105    -1.29900
O368        O  0.43848432  0.58252816  0.45376795    -0.85700
O369        O  0.52310572  0.51340194  0.59392215    -0.87200
O370        O  0.39490043  0.48127592  0.47985451    -0.85800
O371        O  0.54158226  0.56541707  0.42584868    -0.85800
O372        O  0.59371535  0.53300267  0.51023553    -0.85600
O373        O  0.44648763  0.44604110  0.56298433    -0.85400
O374        O  0.42460078  0.55405002  0.55561079    -0.85700
O375        O  0.51280792  0.60392904  0.52865930    -0.85200
O376        O  0.40419727  0.50541350  0.54482692    -0.86300
O377        O  0.55309730  0.59175117  0.49567405    -0.85400
O378        O  0.41011134  0.51449544  0.44075106    -0.85800
O379        O  0.49809012  0.44825267  0.57817955    -0.85500
O380        O  0.57910922  0.50021994  0.55016449    -0.85200
O381        O  0.49004239  0.56344882  0.41030041    -0.85600
O382        O  0.44848694  0.59872271  0.50417067    -0.85900
O383        O  0.49496669  0.55808273  0.58468299    -0.87200
Zr384      Zr  0.46326306  0.53100524  0.44705979     2.83100
Zr385      Zr  0.52542796  0.48410602  0.54473461     2.83500
Zr386      Zr  0.44165989  0.47682832  0.51391285     2.84100
Zr387      Zr  0.54625725  0.53892559  0.47774164     2.83400
Zr388      Zr  0.47707766  0.55795881  0.53074676     2.84200
O389        O  0.52746828  0.53653335  0.52918291    -1.07800
O390        O  0.44365500  0.52911361  0.49788886    -1.07300
C391        C  0.43726741  0.60266582  0.47639185     1.07400
C392        C  0.51077142  0.53950162  0.60237121     1.10000
C393        C  0.38965938  0.49729378  0.45459810     1.07500
C394        C  0.51878789  0.57126135  0.40642009     1.07900
C395        C  0.59912775  0.51761165  0.53581572     1.07500
C396        C  0.46975410  0.43843597  0.58110765     1.07000
C397        C  0.40266351  0.53287711  0.55686688     1.07400
C398        C  0.53826953  0.61080439  0.51340320     1.07000
H399        H  0.46693093  0.50448288  0.56812016     0.33600
O400        O  0.47496773  0.50557906  0.54699231    -1.28900
H401        H  0.49731042  0.58138016  0.47190185     0.33700
O402        O  0.49628933  0.56025407  0.47941068    -1.30300
O403        O  0.05801996  0.94757430  0.04917000    -0.85700
O404        O  0.00837994  0.03276752  0.90090406    -0.85900
O405        O  0.03821939  0.93650420  0.94197388    -0.87600
O406        O  0.09244891  0.01799649  0.97554027    -0.86300
O407        O  0.08079397  0.06009538  0.00657986    -0.85900
O408        O  0.98774139  0.91919821  0.94952145    -0.87300
O409        O  0.04993540  0.00276194  0.91579008    -0.85800
O410        O  0.07638388  0.95072364  0.99870511    -0.85300
Zr411      Zr  0.04410260  0.98678414  0.96985490     2.84300
O412        O  0.02651317  0.03834366  0.96883268    -1.07300
O413        O  0.01024302  0.95727121  0.00086817    -1.08000
C414        C  0.07755308  0.94070679  0.02712719     1.07400
C415        C  0.03420757  0.01825431  0.89521130     1.07300
C416        C  0.01564515  0.91631498  0.93867777     1.10300
C417        C  0.09986503  0.04316084  0.99074793     1.08100
H418        H  0.99407216  0.97873530  0.92763101     0.33600
O419        O  0.99365845  0.98717017  0.94853422    -1.28300
H420        H  0.06426792  0.00674907  0.03001429     0.33300
O421        O  0.04361295  0.00766168  0.02073587    -1.29900
O422        O  0.92562701  0.06686590  0.94962941    -0.85700
O423        O  0.97659441  0.98336010  0.09752199    -0.87200
O424        O  0.93522898  0.96146465  0.92687223    -0.85800
O425        O  0.02797590  0.10419745  0.98307087    -0.85800
O426        O  0.05010181  0.05529019  0.07308750    -0.85600
O427        O  0.96313439  0.91073417  0.01253835    -0.85400
O428        O  0.89273703  0.99838143  0.02222650    -0.85700
O429        O  0.94539823  0.08198020  0.05367141    -0.85200
O430        O  0.90486243  0.95596668  0.99196638    -0.86300
O431        O  0.99628772  0.09880581  0.04708380    -0.85400
O432        O  0.94393070  0.01166228  0.91019523    -0.85800
O433        O  0.99288966  0.92493010  0.05516857    -0.85500
O434        O  0.04112321  0.00515020  0.08917047    -0.85200
O435        O  0.99731941  0.08915731  0.94173089    -0.85600
O436        O  0.90520409  0.06048579  0.99901726    -0.85900
O437        O  0.93484091  0.01398609  0.08376497    -0.87200
Zr438      Zr  0.97576448  0.03832415  0.94788155     2.83100
Zr439      Zr  0.00945046  0.97807353  0.05123420     2.83500
Zr440      Zr  0.95979115  0.95750502  0.97950802     2.84100
Zr441      Zr  0.02580013  0.05926158  0.01981749     2.83400
Zr442      Zr  0.94106777  0.02958252  0.02946456     2.84200
O443        O  0.99170253  0.02937724  0.05075548    -1.07800
O444        O  0.94194607  0.00878711  0.97874265    -1.07300
C445        C  0.90429845  0.07097411  0.97078293     1.07400
C446        C  0.95079173  0.99765350  0.10349268     1.10000
C447        C  0.93247743  0.98412737  0.90688260     1.07500
C448        C  0.01500393  0.10892214  0.95589248     1.07900
C449        C  0.05268556  0.03262398  0.09325281     1.07500
C450        C  0.97793897  0.90489004  0.03837654     1.07000
C451        C  0.88543677  0.97329830  0.00678073     1.07400
C452        C  0.96775145  0.10256466  0.05605859     1.07000
H453        H  0.94471850  0.96517080  0.04370265     0.33600
O454        O  0.95840770  0.97775041  0.03078195    -1.28900
H455        H  0.96747701  0.08050707  0.99655236     0.33700
O456        O  0.97498748  0.05951047  0.99820915    -1.30300
C457        C  0.48624751  0.39130594  0.27544947    -0.13600
C458        C  0.48379953  0.42304976  0.26852630     0.16800
C459        C  0.48480066  0.43299646  0.23740536     0.03100
C460        C  0.49005650  0.41125073  0.21380277    -0.12100
C461        C  0.49408896  0.37889945  0.22011283    -0.03200
C462        C  0.49037294  0.36898511  0.25197847     0.02300
C463        C  0.48478922  0.44500476  0.29486453     0.09200
N464        N  0.48132062  0.46512541  0.22936577     0.65500
H465        H  0.49146193  0.41984310  0.18993709     0.18400
N466        N  0.48802851  0.33702658  0.26147346     0.76000
H467        H  0.48458576  0.38370823  0.29965054     0.09900
C468        C  0.45784351  0.45953834  0.30672731     0.03600
C469        C  0.45880561  0.47304517  0.33660784    -0.05100
C470        C  0.48614132  0.47154139  0.35481446    -0.23500
C471        C  0.51377515  0.45954660  0.34146276     0.12900
C472        C  0.51286686  0.44671721  0.31160949    -0.12600
N473        N  0.42888389  0.45870877  0.28993380     0.64600
H474        H  0.43756207  0.48253029  0.34646953     0.12400
N475        N  0.54283228  0.45929505  0.35814059     0.61200
H476        H  0.53379359  0.43600112  0.30230279     0.08600
O477        O  0.50674802  0.32701985  0.28204534    -0.40300
O478        O  0.46212913  0.32306792  0.25817889    -0.39400
O479        O  0.50540022  0.48193084  0.22566662    -0.39400
O480        O  0.45537528  0.47440824  0.21879219    -0.37100
O481        O  0.55112015  0.43457996  0.37183320    -0.38000
O482        O  0.56345767  0.47919895  0.35090621    -0.34200
O483        O  0.40906639  0.43768106  0.29623939    -0.35600
O484        O  0.42003932  0.48285586  0.27561030    -0.39900
C485        C  0.49860285  0.39977400  0.71967102    -0.13600
C486        C  0.47286768  0.38662410  0.70388988     0.16800
C487        C  0.45518699  0.36352212  0.71881926     0.03100
C488        C  0.46205029  0.35541488  0.74969222    -0.12100
C489        C  0.48724599  0.36902532  0.76698285    -0.03200
C490        C  0.50688236  0.39077772  0.75040318     0.02300
C491        C  0.46715164  0.39510175  0.67068990     0.09200
N492        N  0.43117767  0.34674397  0.70245013     0.65500
H493        H  0.44674061  0.33840993  0.76060687     0.18400
N494        N  0.53593746  0.40294282  0.76257278     0.76000
H495        H  0.51330195  0.41639765  0.70731029     0.09900
C496        C  0.44248824  0.41486142  0.66136471     0.03600
C497        C  0.44135596  0.42631641  0.63049220    -0.05100
C498        C  0.46455805  0.41834156  0.60882608    -0.23500
C499        C  0.48731865  0.39610849  0.61754452     0.12900
C500        C  0.48849883  0.38489483  0.64826829    -0.12600
N501        N  0.41993843  0.42547251  0.68346740     0.64600
H502        H  0.42390571  0.44349679  0.62429626     0.12400
N503        N  0.51013802  0.38545711  0.59569405     0.61200
H504        H  0.50700667  0.36904013  0.65500082     0.08600
O505        O  0.54237480  0.43149069  0.75889635    -0.40300
O506        O  0.55814018  0.38461511  0.76845849    -0.39400
O507        O  0.43797608  0.32139857  0.68923767    -0.39400
O508        O  0.40285407  0.35263192  0.70806126    -0.37100
O509        O  0.50538375  0.35994543  0.58176211    -0.38000
O510        O  0.53757684  0.39655593  0.59678449    -0.34200
O511        O  0.42484226  0.45076071  0.69778836    -0.35600
O512        O  0.39256596  0.41420618  0.68268737    -0.39900
C513        C  0.96018642  0.82301756  0.06713899    -0.13600
C514        C  0.98900765  0.81607059  0.08151794     0.16800
C515        C  0.01439588  0.83685063  0.07839041     0.03100
C516        C  0.01030832  0.86456105  0.06215015    -0.12100
C517        C  0.98096777  0.87273595  0.04969762    -0.03200
C518        C  0.95589303  0.85136930  0.05139514     0.02300
C519        C  0.99226890  0.78719653  0.09985682     0.09200
N520        N  0.04373536  0.83135032  0.09363933     0.65500
H521        H  0.03002904  0.88057594  0.06055284     0.18400
N522        N  0.92565471  0.85885485  0.03925127     0.76000
H523        H  0.94075772  0.80671890  0.06888014     0.09900
C524        C  0.97331201  0.78130264  0.12593443     0.03600
C525        C  0.97559057  0.75288473  0.14146836    -0.05100
C526        C  0.99675888  0.72946569  0.13187946    -0.23500
C527        C  0.01919162  0.73793115  0.10829025     0.12900
C528        C  0.01530376  0.76579074  0.09167218    -0.12600
N529        N  0.95153277  0.80391733  0.13694860     0.64600
H530        H  0.95916770  0.74840564  0.16025460     0.12400
N531        N  0.04740742  0.72100085  0.10225347     0.61200
H532        H  0.03110688  0.77118623  0.07258172     0.08600
O533        O  0.90550757  0.87053274  0.05722193    -0.40300
O534        O  0.91703400  0.84764258  0.01326569    -0.39400
O535        O  0.06684106  0.82250960  0.07769200    -0.39400
O536        O  0.04831439  0.84199596  0.12084062    -0.37100
O537        O  0.05367375  0.71342362  0.07442114    -0.38000
O538        O  0.06996368  0.72373350  0.12120998    -0.34200
O539        O  0.92286283  0.80106723  0.13017109    -0.35600
O540        O  0.95970652  0.82229725  0.15859089    -0.39900
C541        C  0.00017288  0.23220619  0.11773910    -0.13600
C542        C  0.97228404  0.22830064  0.10095474     0.16800
C543        C  0.95329556  0.25440206  0.09599613     0.03100
C544        C  0.96153326  0.28320280  0.10941594    -0.12100
C545        C  0.98754281  0.28681869  0.13011400    -0.03200
C546        C  0.00850282  0.26092828  0.13129118     0.02300
C547        C  0.96449949  0.19684501  0.08827864     0.09200
N548        N  0.92476510  0.25189972  0.07851460     0.65500
H549        H  0.94678038  0.30248931  0.10316632     0.18400
N550        N  0.03851818  0.26291618  0.14604821     0.76000
H551        H  0.01596308  0.21266661  0.12013239     0.09900
C552        C  0.96749245  0.18993902  0.05613061     0.03600
C553        C  0.96568420  0.15894220  0.04598477    -0.05100
C554        C  0.96073392  0.13436586  0.06720400    -0.23500
C555        C  0.95534908  0.14136552  0.09894829     0.12900
C556        C  0.95753558  0.17245038  0.10927537    -0.12600
N557        N  0.97472369  0.21370534  0.03376018     0.64600
H558        H  0.97006699  0.15383191  0.02150389     0.12400
N559        N  0.94947838  0.11715177  0.12120649     0.61200
H560        H  0.95501984  0.17745676  0.13402364     0.08600
O561        O  0.06154417  0.27160904  0.12967026    -0.40300
O562        O  0.04368235  0.24622253  0.16988196    -0.39400
O563        O  0.90023515  0.24276278  0.09225285    -0.39400
O564        O  0.92238897  0.26581993  0.05255232    -0.37100
O565        O  0.97175151  0.10681147  0.13759827    -0.38000
O566        O  0.92164446  0.11111509  0.12912069    -0.34200
O567        O  0.00296861  0.22123611  0.02922249    -0.35600
O568        O  0.95444176  0.22085704  0.01346100    -0.39900
C569        C  0.50966794  0.62475988  0.33712545    -0.13600
C570        C  0.52063220  0.60608456  0.31266322     0.16800
C571        C  0.53441685  0.57710465  0.32007335     0.03100
C572        C  0.53646821  0.56747476  0.35155885    -0.12100
C573        C  0.52491888  0.58610937  0.37588390    -0.03200
C574        C  0.51131614  0.61500475  0.36830024     0.02300
C575        C  0.51804596  0.61889845  0.28031665     0.09200
N576        N  0.54631725  0.55714072  0.29621280     0.65500
H577        H  0.54576759  0.54463297  0.35690580     0.18400
N578        N  0.49822686  0.63457682  0.39180636     0.76000
H579        H  0.49882018  0.64694543  0.33186515     0.09900
C580        C  0.50068832  0.60449726  0.25628183     0.03600
C581        C  0.49620168  0.62010933  0.22779370    -0.05100
C582        C  0.50545314  0.65148896  0.22278254    -0.23500
C583        C  0.52517917  0.66479348  0.24679668     0.12900
C584        C  0.53078409  0.64844921  0.27469248    -0.12600
N585        N  0.48532037  0.57512435  0.26086455     0.64600
H586        H  0.48352316  0.60761082  0.21014816     0.12400
N587        N  0.54074973  0.69435037  0.24404066     0.61200
H588        H  0.54496836  0.65948551  0.29273700     0.08600
O589        O  0.50959339  0.66157331  0.39542765    -0.40300
O590        O  0.47082067  0.62897890  0.40136598    -0.39400
O591        O  0.57288454  0.56292046  0.28465081    -0.39400
O592        O  0.53441697  0.53034008  0.29268007    -0.37100
O593        O  0.52889138  0.71737891  0.25785225    -0.38000
O594        O  0.57007184  0.69442463  0.24039866    -0.34200
O595        O  0.45900642  0.57458629  0.27422588    -0.35600
O596        O  0.49293589  0.55234388  0.24391651    -0.39900
C597        C  0.47749952  0.61272869  0.72696323    -0.13600
C598        C  0.50476449  0.59529905  0.72351131     0.16800
C599        C  0.52802207  0.59715165  0.74665164     0.03100
C600        C  0.52455403  0.61749518  0.77189087    -0.12100
C601        C  0.49833307  0.63740335  0.77485451    -0.03200
C602        C  0.47350786  0.63282499  0.75252010     0.02300
C603        C  0.50945373  0.57711821  0.69450243     0.09200
N604        N  0.55475991  0.57733941  0.74571115     0.65500
H605        H  0.54213764  0.61564297  0.78981042     0.18400
N606        N  0.44316239  0.64628177  0.75645364     0.76000
H607        H  0.45898673  0.61070640  0.70961827     0.09900
C608        C  0.49031487  0.55125986  0.68678452     0.03600
C609        C  0.49299562  0.53731068  0.65725588    -0.05100
C610        C  0.51406832  0.54920823  0.63510576    -0.23500
C611        C  0.53370620  0.57445570  0.64303704     0.12900
C612        C  0.53154221  0.58800679  0.67273631    -0.12600
N613        N  0.46715149  0.53982770  0.70806791     0.64600
H614        H  0.47724352  0.51837948  0.65092138     0.12400
N615        N  0.55428802  0.58788294  0.62030276     0.61200
H616        H  0.54602491  0.60813440  0.67827552     0.08600
O617        O  0.42178443  0.62968450  0.76843145    -0.40300
O618        O  0.43534692  0.66927113  0.73980662    -0.39400
O619        O  0.58099688  0.58865066  0.73803540    -0.39400
O620        O  0.55366840  0.55130709  0.75949084    -0.37100
O621        O  0.54590467  0.61173266  0.60522152    -0.38000
O622        O  0.57863538  0.57355618  0.61221109    -0.34200
O623        O  0.43923366  0.54889253  0.70525962    -0.35600
O624        O  0.47282386  0.51580877  0.72414873    -0.39900
C625        C  0.03572807  0.19293709  0.93213144    -0.13600
C626        C  0.01620405  0.19616280  0.90575124     0.16800
C627        C  0.99928740  0.17041023  0.89461970     0.03100
C628        C  0.00041320  0.14248324  0.91089797    -0.12100
C629        C  0.01846080  0.13900364  0.93856665    -0.03200
C630        C  0.03733375  0.16439474  0.94841222     0.02300
C631        C  0.01196118  0.22670660  0.89072355     0.09200
N632        N  0.98032362  0.17235759  0.86697101     0.65500
H633        H  0.98613778  0.12360393  0.90169793     0.18400
N634        N  0.05863555  0.16151633  0.97411462     0.76000
H635        H  0.04946090  0.21270202  0.94024317     0.09900
C636        C  0.98551538  0.24458040  0.89744285     0.03600
C637        C  0.98057294  0.27257040  0.88164525    -0.05100
C638        C  0.00285348  0.28493020  0.86053625    -0.23500
C639        C  0.02747704  0.26443055  0.85103973     0.12900
C640        C  0.03195859  0.23603671  0.86665996    -0.12600
N641        N  0.96361400  0.23481016  0.92078734     0.64600
H642        H  0.95894003  0.28434486  0.88647877     0.12400
N643        N  0.04736007  0.27109794  0.82488574     0.61200
H644        H  0.05098406  0.22100508  0.85968051     0.08600
O645        O  0.05244534  0.17448613  0.99984678    -0.40300
O646        O  0.08612029  0.15219430  0.96907233    -0.39400
O647        O  0.99093279  0.16220344  0.84141889    -0.39400
O648        O  0.95125298  0.17663680  0.86958274    -0.37100
O649        O  0.07417022  0.28283811  0.82938318    -0.38000
O650        O  0.04182137  0.25754969  0.79919731    -0.34200
O651        O  0.96889594  0.24149664  0.94910329    -0.35600
O652        O  0.93654412  0.22591134  0.91268056    -0.39900
C653        C  0.01302452  0.83151004  0.91583904    -0.13600
C654        C  0.01774540  0.83303498  0.88339102     0.16800
C655        C  0.02652531  0.86203232  0.86991528     0.03100
C656        C  0.02888906  0.88873629  0.88905361    -0.12100
C657        C  0.02111088  0.88731282  0.92097871    -0.03200
C658        C  0.01329303  0.85818700  0.93431564     0.02300
C659        C  0.01038241  0.80400786  0.86549860     0.09200
N660        N  0.03035512  0.86562871  0.83685451     0.65500
H661        H  0.03411228  0.91111779  0.87838214     0.18400
N662        N  0.00281639  0.85544881  0.96597797     0.76000
H663        H  0.00669308  0.80949467  0.92672876     0.09900
C664        C  0.03260222  0.78820829  0.84751964     0.03600
C665        C  0.02713227  0.75707223  0.83922539    -0.05100
C666        C  0.00028713  0.73994471  0.84908722    -0.23500
C667        C  0.97623671  0.75752680  0.86408680     0.12900
C668        C  0.98180929  0.78888532  0.87184352    -0.12600
N669        N  0.06190173  0.80229479  0.83939111     0.64600
H670        H  0.04537868  0.74546604  0.82654716     0.12400
N671        N  0.94618631  0.74492948  0.87232310     0.61200
H672        H  0.96388653  0.80137978  0.88452285     0.08600
O673        O  0.01964363  0.84103076  0.98543572    -0.40300
O674        O  0.97389329  0.85770269  0.97134414    -0.39400
O675        O  0.00640077  0.86967717  0.81996356    -0.39400
O676        O  0.05680308  0.87371721  0.82637166    -0.37100
O677        O  0.93704342  0.74707182  0.90034280    -0.38000
O678        O  0.92610541  0.73959090  0.85120895    -0.34200
O679        O  0.08467429  0.80025983  0.85819581    -0.35600
O680        O  0.06719518  0.80881192  0.81103713    -0.39900
C681        C  0.07366531  0.35639146  0.88862062    -0.13600
C682        C  0.07118788  0.38694086  0.87788562     0.16800
C683        C  0.04714030  0.39474284  0.85706101     0.03100
C684        C  0.02566038  0.37189587  0.84763655    -0.12100
C685        C  0.02714410  0.34055246  0.85835542    -0.03200
C686        C  0.05209061  0.33321764  0.87996143     0.02300
C687        C  0.09307261  0.41025746  0.89097572     0.09200
N688        N  0.04388650  0.42584416  0.84556594     0.65500
H689        H  0.00726078  0.37882815  0.83158369     0.18400
N690        N  0.05538460  0.30396027  0.89588102     0.76000
H691        H  0.09194556  0.35075395  0.90538177     0.09900
C692        C  0.08705295  0.42383749  0.92028768     0.03600
C693        C  0.11096574  0.43988650  0.93612645    -0.05100
C694        C  0.14126037  0.44242460  0.92337464    -0.23500
C695        C  0.14680401  0.42946774  0.89335322     0.12900
C696        C  0.12269586  0.41364534  0.87751119    -0.12600
N697        N  0.05744424  0.41934959  0.93526499     0.64600
H698        H  0.10600925  0.44941927  0.95906691     0.12400
N699        N  0.17687918  0.43131692  0.87886887     0.61200
H700        H  0.12757019  0.40258760  0.85524636     0.08600
O701        O  0.03995592  0.29918408  0.92058043    -0.40300
O702        O  0.08047072  0.28901155  0.89235631    -0.39400
O703        O  0.05709623  0.43345790  0.82025784    -0.39400
O704        O  0.02241557  0.44280439  0.85624398    -0.37100
O705        O  0.19523379  0.40850091  0.88112639    -0.38000
O706        O  0.18193418  0.45189939  0.85830827    -0.34200
O707        O  0.05482171  0.39987029  0.95730279    -0.35600
O708        O  0.03340791  0.43285101  0.92483227    -0.39900
C709        C  0.07626423  0.35917193  0.13921356    -0.13600
C710        C  0.07520766  0.36636625  0.10720684     0.16800
C711        C  0.05169932  0.35262685  0.08864363     0.03100
C712        C  0.02774992  0.33524270  0.10273230    -0.12100
C713        C  0.02591395  0.33110554  0.13570681    -0.03200
C714        C  0.05286317  0.34071679  0.15354796     0.02300
C715        C  0.09904495  0.38782455  0.09344353     0.09200
N716        N  0.05167062  0.35617761  0.05534059     0.65500
H717        H  0.00896183  0.32683553  0.08777136     0.18400
N718        N  0.05887226  0.33028006  0.18493279     0.76000
H719        H  0.09583458  0.36758889  0.15315715     0.09900
C720        C  0.09218515  0.41938894  0.08743709     0.03600
C721        C  0.11492370  0.43910232  0.07400266    -0.05100
C722        C  0.14490692  0.42804642  0.06656965    -0.23500
C723        C  0.15166875  0.39636560  0.07282139     0.12900
C724        C  0.12893056  0.37670575  0.08629104    -0.12600
N725        N  0.06250749  0.43200620  0.09579618     0.64600
H726        H  0.10919456  0.46331552  0.06979372     0.12400
N727        N  0.18089031  0.38329021  0.06382185     0.61200
H728        H  0.13440823  0.35243855  0.09055788     0.08600
O729        O  0.06469882  0.35019508  0.20593763    -0.40300
O730        O  0.06877894  0.30296832  0.18900701    -0.39400
O731        O  0.06340757  0.33501266  0.03869077    -0.39400
O732        O  0.03354131  0.37566150  0.04276508    -0.37100
O733        O  0.20167244  0.37811198  0.08424587    -0.38000
O734        O  0.18690557  0.37951790  0.03515302    -0.34200
O735        O  0.05967944  0.44596709  0.12162399    -0.35600
O736        O  0.04154785  0.43498030  0.07511433    -0.39900
C737        C  0.12252530  0.62101496  0.11539553    -0.13600
C738        C  0.09206605  0.60944120  0.11185418     0.16800
C739        C  0.08716721  0.58203832  0.09435859     0.03100
C740        C  0.11226496  0.56814453  0.07888529    -0.12100
C741        C  0.14288459  0.58049685  0.08099789    -0.03200
C742        C  0.14797249  0.60663542  0.10087672     0.02300
C743        C  0.06563889  0.62884947  0.12260381     0.09200
N744        N  0.05688232  0.56773853  0.09251360     0.65500
H745        H  0.10750420  0.54749900  0.06502069     0.18400
N746        N  0.17831223  0.61991665  0.10606246     0.76000
H747        H  0.12653638  0.64213219  0.12878352     0.09900
C748        C  0.06347249  0.63978930  0.15350485     0.03600
C749        C  0.04032478  0.66123259  0.16146012    -0.05100
C750        C  0.01921287  0.67349585  0.13899719    -0.23500
C751        C  0.02011368  0.65974279  0.10832307     0.12900
C752        C  0.04371944  0.63879851  0.10052881    -0.12600
N753        N  0.08400332  0.62857875  0.17746073     0.64600
H754        H  0.03879826  0.66717238  0.18592024     0.12400
N755        N  0.99621888  0.66444850  0.08519451     0.61200
H756        H  0.04485658  0.63021251  0.07668789     0.08600
O757        O  0.18206504  0.64864454  0.10106863    -0.40300
O758        O  0.19670187  0.60658572  0.12488917    -0.39400
O759        O  0.04230173  0.56740373  0.06673216    -0.39400
O760        O  0.04805421  0.54989031  0.11434270    -0.37100
O761        O  0.97542077  0.64357465  0.08238237    -0.38000
O762        O  0.00248081  0.68080681  0.06142341    -0.34200
O763        O  0.10332727  0.64708684  0.19016264    -0.35600
O764        O  0.07815339  0.60273134  0.19039807    -0.39900
C765        C  0.07056617  0.67534997  0.89028512    -0.13600
C766        C  0.07301866  0.64474846  0.87964860     0.16800
C767        C  0.05228858  0.63416029  0.85644059     0.03100
C768        C  0.02982668  0.65432913  0.84397275    -0.12100
C769        C  0.02714513  0.68578993  0.85350393    -0.03200
C770        C  0.04758210  0.69563667  0.87866159     0.02300
C771        C  0.09566387  0.62366782  0.89520011     0.09200
N772        N  0.05331488  0.60270394  0.84563749     0.65500
H773        H  0.01419248  0.64515330  0.82634623     0.18400
N774        N  0.04425360  0.72440687  0.89530834     0.76000
H775        H  0.08567673  0.68311858  0.90926056     0.09900
C776        C  0.12747813  0.62390003  0.88695482     0.03600
C777        C  0.14893038  0.60621929  0.90422943    -0.05100
C778        C  0.13947874  0.58804436  0.93017177    -0.23500
C779        C  0.10724296  0.58772208  0.93816608     0.12900
C780        C  0.08581009  0.60541797  0.92064377    -0.12600
N781        N  0.13841898  0.64225817  0.86120757     0.64600
H782        H  0.17324583  0.60682979  0.89708371     0.12400
N783        N  0.09587299  0.57063016  0.96459494     0.61200
H784        H  0.06138665  0.60557962  0.92747584     0.08600
O785        O  0.06653497  0.74386970  0.89435734    -0.40300
O786        O  0.02613799  0.72522246  0.91857851    -0.39400
O787        O  0.03450070  0.58284867  0.85686537    -0.39400
O788        O  0.06792924  0.59648032  0.82080549    -0.37100
O789        O  0.09339349  0.58419970  0.99068143    -0.38000
O790        O  0.08190703  0.54495428  0.96029627    -0.34200
O791        O  0.15476332  0.66635248  0.86635508    -0.35600
O792        O  0.13668151  0.63143543  0.83377319    -0.39900
C793        C  0.43265404  0.37629790  0.87092515    -0.13600
C794        C  0.41167370  0.39696821  0.85696336     0.16800
C795        C  0.41388205  0.40290230  0.82473118     0.03100
C796        C  0.43776171  0.38927767  0.80728562    -0.12100
C797        C  0.46035172  0.36910562  0.82098709    -0.03200
C798        C  0.45672013  0.36241997  0.85367247     0.02300
C799        C  0.38964120  0.41432454  0.87700349     0.09200
N800        N  0.39396924  0.42512692  0.80978598     0.65500
H801        H  0.43954097  0.39732960  0.78342455     0.18400
N802        N  0.47813392  0.34299057  0.87044630     0.76000
H803        H  0.43103096  0.37171521  0.89586299     0.09900
C804        C  0.35733613  0.40803326  0.87649953     0.03600
C805        C  0.33738587  0.42491420  0.89587092    -0.05100
C806        C  0.34884433  0.44809661  0.91649321    -0.23500
C807        C  0.38136146  0.45483941  0.91629899     0.12900
C808        C  0.40135342  0.43775892  0.89683642    -0.12600
N809        N  0.34448843  0.38372898  0.85739344     0.64600
H810        H  0.31267089  0.41912084  0.89506840     0.12400
N811        N  0.39444102  0.47959531  0.93462312     0.61200
H812        H  0.42620586  0.44311743  0.89686538     0.08600
O813        O  0.49852681  0.35585811  0.88768189    -0.40300
O814        O  0.46998675  0.31533231  0.87664352    -0.39400
O815        O  0.40254515  0.45331904  0.80869094    -0.39400
O816        O  0.37300804  0.41564217  0.79110014    -0.37100
O817        O  0.39502494  0.50684616  0.92346602    -0.38000
O818        O  0.41168402  0.47321141  0.95778037    -0.34200
O819        O  0.34351747  0.35628074  0.86802378    -0.35600
O820        O  0.32745032  0.39073807  0.83424515    -0.39900
C821        C  0.39399506  0.61677654  0.91170208    -0.13600
C822        C  0.38761146  0.61864948  0.87940414     0.16800
C823        C  0.35995918  0.60495934  0.86754106     0.03100
C824        C  0.33901941  0.59010019  0.88793497    -0.12100
C825        C  0.34549472  0.58784287  0.92016872    -0.03200
C826        C  0.37314445  0.60156982  0.93212531     0.02300
C827        C  0.41251420  0.62973950  0.85795963     0.09200
N828        N  0.35390191  0.60407475  0.83459936     0.65500
H829        H  0.31809841  0.57922538  0.87830840     0.18400
N830        N  0.38012472  0.60046213  0.96491394     0.76000
H831        H  0.41559455  0.62658837  0.92093690     0.09900
C832        C  0.41366295  0.66009886  0.84549655     0.03600
C833        C  0.43882323  0.66928521  0.82628228    -0.05100
C834        C  0.46402576  0.64895508  0.81995231    -0.23500
C835        C  0.46078221  0.61739253  0.83092283     0.12900
C836        C  0.43560810  0.60863337  0.84979313    -0.12600
N837        N  0.39000700  0.68221614  0.85290457     0.64600
H838        H  0.43833119  0.69259807  0.81680655     0.12400
N839        N  0.48323553  0.59376780  0.82411556     0.61200
H840        H  0.43431161  0.58492101  0.85857938     0.08600
O841        O  0.36348277  0.61541484  0.98400665    -0.40300
O842        O  0.39999732  0.58129579  0.97510635    -0.39400
O843        O  0.36097052  0.58004078  0.81923301    -0.39400
O844        O  0.33578212  0.62387236  0.82252629    -0.37100
O845        O  0.47718007  0.57477549  0.80231960    -0.38000
O846        O  0.50207284  0.58553071  0.84535962    -0.34200
O847        O  0.39372200  0.69974300  0.87637009    -0.35600
O848        O  0.36970707  0.68905934  0.83251175    -0.39900
C849        C  0.39945717  0.59070370  0.10874956    -0.13600
C850        C  0.38999042  0.61903993  0.12199754     0.16800
C851        C  0.35996850  0.63027456  0.11496129     0.03100
C852        C  0.34010621  0.61340034  0.09483091    -0.12100
C853        C  0.34947077  0.58508344  0.08108830    -0.03200
C854        C  0.37965120  0.57378519  0.08843056     0.02300
C855        C  0.41256273  0.63713105  0.14160738     0.09200
N856        N  0.34923836  0.65880904  0.12812496     0.65500
H857        H  0.31713475  0.62277957  0.08980704     0.18400
N858        N  0.39047129  0.54498583  0.07602954     0.76000
H859        H  0.42246930  0.58165467  0.11410780     0.09900
C860        C  0.41605562  0.63143527  0.17385144     0.03600
C861        C  0.44177451  0.64400142  0.19019234    -0.05100
C862        C  0.46605141  0.66033805  0.17455683    -0.23500
C863        C  0.45919272  0.67038801  0.14330468     0.12900
C864        C  0.43288796  0.65846585  0.12723922    -0.12600
N865        N  0.39420893  0.61209764  0.19022399     0.64600
H866        H  0.44264806  0.64010389  0.21516934     0.12400
N867        N  0.47917120  0.69174944  0.12695204     0.61200
H868        H  0.42951053  0.66436280  0.10275362     0.08600
O869        O  0.38897331  0.52073598  0.09275499    -0.40300
O870        O  0.40804479  0.54541449  0.05233072    -0.39400
O871        O  0.34938892  0.68319473  0.11156836    -0.39400
O872        O  0.33344888  0.65812298  0.15305046    -0.37100
O873        O  0.50088836  0.68150310  0.10994908    -0.38000
O874        O  0.47039393  0.71956097  0.12339553    -0.34200
O875        O  0.40200549  0.58482431  0.19791761    -0.35600
O876        O  0.37083881  0.62440113  0.20314152    -0.39900
C877        C  0.41673071  0.38659427  0.16075385    -0.13600
C878        C  0.42081583  0.38889054  0.12836632     0.16800
C879        C  0.44884863  0.37738511  0.11565710     0.03100
C880        C  0.47300139  0.36741910  0.13539999    -0.12100
C881        C  0.46993731  0.36581941  0.16844723    -0.03200
C882        C  0.43931845  0.37310768  0.18024868     0.02300
C883        C  0.39680934  0.40512462  0.10865461     0.09200
N884        N  0.45304160  0.37445934  0.08253364     0.65500
H885        H  0.49350452  0.36030345  0.12330065     0.18400
N886        N  0.42987032  0.36648216  0.21172786     0.76000
H887        H  0.39570295  0.39532238  0.17150976     0.09900
C888        C  0.36417228  0.40140757  0.11334215     0.03600
C889        C  0.34301491  0.41894179  0.09561681    -0.05100
C890        C  0.35309842  0.43941889  0.07181696    -0.23500
C891        C  0.38564442  0.44201983  0.06624633     0.12900
C892        C  0.40688448  0.42623352  0.08552428    -0.12600
N893        N  0.35173491  0.37946935  0.13536899     0.64600
H894        H  0.31827988  0.41584496  0.10037004     0.12400
N895        N  0.39770549  0.45819173  0.03960722     0.61200
H896        H  0.43161074  0.43042545  0.08193188     0.08600
O897        O  0.41691868  0.34050946  0.21712680    -0.40300
O898        O  0.42371871  0.38898033  0.22966823    -0.39400
O899        O  0.47395150  0.39054334  0.06913720    -0.39400
O900        O  0.44237706  0.35053015  0.06890617    -0.37100
O901        O  0.39878336  0.44381570  0.01388131    -0.38000
O902        O  0.41545121  0.48147029  0.04368260    -0.34200
O903        O  0.33762175  0.38939668  0.15926529    -0.35600
O904        O  0.34729953  0.35163725  0.12683556    -0.39900
C905        C  0.62858273  0.39036334  0.10496795    -0.13600
C906        C  0.59820847  0.40170153  0.10799708     0.16800
C907        C  0.58949827  0.42871346  0.09142210     0.03100
C908        C  0.61147130  0.44441055  0.07261648    -0.12100
C909        C  0.64248189  0.43375224  0.07018720    -0.03200
C910        C  0.65072300  0.40598156  0.08646362     0.02300
C911        C  0.57699768  0.38753250  0.13148205     0.09200
N912        N  0.55848709  0.44072905  0.09408722     0.65500
H913        H  0.60438534  0.46545380  0.06053948     0.18400
N914        N  0.68161475  0.39344881  0.08514667     0.76000
H915        H  0.63553493  0.36984497  0.11803383     0.09900
C916        C  0.56293985  0.35819668  0.12723685     0.03600
C917        C  0.54058126  0.34749863  0.14876164    -0.05100
C918        C  0.53084038  0.36604413  0.17434770    -0.23500
C919        C  0.55134795  0.39170543  0.18215190     0.12900
C920        C  0.57221583  0.40323359  0.15959669    -0.12600
N921        N  0.56990559  0.33972554  0.10039986     0.64600
H922        H  0.52870718  0.32563241  0.14379550     0.12400
N923        N  0.55508364  0.40374741  0.21331865     0.61200
H924        H  0.58609919  0.42389193  0.16470323     0.08600
O925        O  0.70130436  0.40090487  0.10602442    -0.40300
O926        O  0.68670100  0.36998649  0.06816534    -0.39400
O927        O  0.55333139  0.46347345  0.11200638    -0.39400
O928        O  0.53575002  0.42610693  0.08194274    -0.37100
O929        O  0.56771236  0.38677648  0.23384712    -0.38000
O930        O  0.55556168  0.43288691  0.21742166    -0.34200
O931        O  0.59108748  0.31944991  0.10216926    -0.35600
O932        O  0.55121649  0.33942604  0.07742583    -0.39900
C933        C  0.59901881  0.61593278  0.08255601    -0.13600
C934        C  0.60013897  0.61107480  0.11502997     0.16800
C935        C  0.62159519  0.58960419  0.12753338     0.03100
C936        C  0.64279061  0.57472337  0.10763108    -0.12100
C937        C  0.64176720  0.57960318  0.07506453    -0.03200
C938        C  0.61917020  0.59994960  0.06245760     0.02300
C939        C  0.57553683  0.62497697  0.13467104     0.09200
N940        N  0.62021496  0.58073698  0.15980971     0.65500
H941        H  0.65943260  0.55843758  0.11748555     0.18400
N942        N  0.61623057  0.60453556  0.02940427     0.76000
H943        H  0.58165221  0.63146562  0.07270002     0.09900
C944        C  0.58099558  0.65058758  0.15428178     0.03600
C945        C  0.55633346  0.66287485  0.17182319    -0.05100
C946        C  0.52502771  0.65206965  0.16883878    -0.23500
C947        C  0.52078083  0.62420318  0.15022352     0.12900
C948        C  0.54580282  0.61180344  0.13343672    -0.12600
N949        N  0.61107466  0.66537246  0.15556513     0.64600
H950        H  0.56193145  0.68204235  0.18696355     0.12400
N951        N  0.49198282  0.60711002  0.14748019     0.61200
H952        H  0.54187215  0.59125531  0.11911009     0.08600
O953        O  0.59829203  0.58677823  0.01390962    -0.40300
O954        O  0.62484056  0.63014574  0.01754345    -0.39400
O955        O  0.60254995  0.55854216  0.16817041    -0.39400
O956        O  0.63523278  0.59606672  0.18018814    -0.37100
O957        O  0.47775414  0.60865282  0.12157267    -0.38000
O958        O  0.48935609  0.58202626  0.16276704    -0.34200
O959        O  0.61842064  0.68485861  0.13461546    -0.35600
O960        O  0.62683533  0.66446446  0.18062273    -0.39900
C961        C  0.62197496  0.63416218  0.89624497    -0.13600
C962        C  0.59401443  0.61868728  0.88837263     0.16800
C963        C  0.58980770  0.58742262  0.89826291     0.03100
C964        C  0.61305498  0.57273426  0.91611923    -0.12100
C965        C  0.64125011  0.58801122  0.92364015    -0.03200
C966        C  0.64555263  0.61918065  0.91346736     0.02300
C967        C  0.56989343  0.63535119  0.86947857     0.09200
N968        N  0.56330025  0.56932697  0.88843217     0.65500
H969        H  0.60955068  0.54860842  0.92292905     0.18400
N970        N  0.67305226  0.63655164  0.92153249     0.76000
H971        H  0.62550895  0.65817570  0.88906888     0.09900
C972        C  0.53912106  0.63900137  0.88032673     0.03600
C973        C  0.51613019  0.65050085  0.86010122    -0.05100
C974        C  0.52245998  0.65726077  0.82814453    -0.23500
C975        C  0.55469810  0.66155029  0.82074674     0.12900
C976        C  0.57782944  0.64879796  0.84050549    -0.12600
N977        N  0.53090730  0.63214313  0.91208026     0.64600
H978        H  0.49298057  0.65319055  0.86982240     0.12400
N979        N  0.56439905  0.67771728  0.79309569     0.61200
H980        H  0.60204726  0.64915938  0.83302104     0.08600
O981        O  0.67185416  0.65551797  0.94404541    -0.40300
O982        O  0.69481008  0.63916842  0.90174662    -0.39400
O983        O  0.56345444  0.55740105  0.86141662    -0.39400
O984        O  0.54527510  0.55794163  0.90891500    -0.37100
O985        O  0.56543909  0.70712171  0.79366201    -0.38000
O986        O  0.58033752  0.66353283  0.77284844    -0.34200
O987        O  0.53963853  0.65064181  0.93341074    -0.35600
O988        O  0.50887373  0.61315643  0.91759298    -0.39900
C989        C  0.58647525  0.42108478  0.90792796    -0.13600
C990        C  0.59426902  0.41192669  0.87741414     0.16800
C991        C  0.62494529  0.41737878  0.86660795     0.03100
C992        C  0.64717866  0.43174098  0.88628897    -0.12100
C993        C  0.63949357  0.44124345  0.91689617    -0.03200
C994        C  0.60862390  0.43552747  0.92767629     0.02300
C995        C  0.56950296  0.39821451  0.85687569     0.09200
N996        N  0.63356598  0.40959320  0.83528316     0.65500
H997        H  0.67045862  0.43612238  0.87718483     0.18400
N998        N  0.59949214  0.44336898  0.95885023     0.76000
H999        H  0.56292906  0.41698475  0.91648508     0.09900
C1000       C  0.56715873  0.36601557  0.85147469     0.03600
C1001       C  0.54211710  0.35380597  0.83376711    -0.05100
C1002       C  0.51851786  0.37293482  0.82055811    -0.23500
C1003       C  0.52032336  0.40553880  0.82838314     0.12900
C1004       C  0.54598416  0.41751029  0.84531230    -0.12600
N1005       N  0.58851198  0.34501451  0.86613394     0.64600
H1006       H  0.54052669  0.32876560  0.83242795     0.12400
N1007       N  0.49492015  0.42650527  0.82298792     0.61200
H1008       H  0.54670798  0.44216118  0.85086840     0.08600
O1009       O  0.60038913  0.42278518  0.97998521    -0.40300
O1010       O  0.58446532  0.46811866  0.96358956    -0.39400
O1011       O  0.63196027  0.43012425  0.81414381    -0.39400
O1012       O  0.64908357  0.38519600  0.83035838    -0.37100
O1013       O  0.47813478  0.43386849  0.84607575    -0.38000
O1014       O  0.49596629  0.44486500  0.79991275    -0.34200
O1015       O  0.58254989  0.33486926  0.89325546    -0.35600
O1016       O  0.60882606  0.33147961  0.84976414    -0.39900
C1017       C  0.89206858  0.43275728  0.10633372    -0.13600
C1018       C  0.89370207  0.40038379  0.10133706     0.16800
C1019       C  0.87181851  0.38627217  0.08077871     0.03100
C1020       C  0.84945860  0.40452117  0.06536296    -0.12100
C1021       C  0.84860578  0.43689232  0.06951560    -0.03200
C1022       C  0.86992556  0.45106421  0.09049017     0.02300
C1023       C  0.91885914  0.38187817  0.11687123     0.09200
N1024       N  0.87282749  0.35365469  0.07417842     0.65500
H1025       H  0.83311006  0.39341798  0.04935577     0.18400
N1026       N  0.86852593  0.48370427  0.09694384     0.76000
H1027       H  0.90800647  0.44388820  0.12273982     0.09900
C1028       C  0.95054838  0.39033899  0.11374861     0.03600
C1029       C  0.97384919  0.37164587  0.12673087    -0.05100
C1030       C  0.96704090  0.34262818  0.14130862    -0.23500
C1031       C  0.93480919  0.33684819  0.14846867     0.12900
C1032       C  0.91132000  0.35589543  0.13549428    -0.12600
N1033       N  0.95979230  0.41701559  0.09582078     0.64600
H1034       H  0.99750514  0.38035448  0.12454007     0.12400
N1035       N  0.92531028  0.31132040  0.16797819     0.61200
H1036       H  0.88696526  0.35027566  0.13997667     0.08600
O1037       O  0.88891797  0.50180531  0.08548635    -0.40300
O1038       O  0.85129909  0.49324972  0.11883552    -0.39400
O1039       O  0.85224993  0.33579532  0.08569219    -0.39400
O1040       O  0.88935005  0.34413413  0.05174142    -0.37100
O1041       O  0.92434507  0.31536847  0.19724714    -0.38000
O1042       O  0.90947793  0.28928993  0.15617587    -0.34200
O1043       O  0.97125870  0.44047726  0.10964182    -0.35600
O1044       O  0.96304933  0.41442826  0.06656179    -0.39900
C1045       C  0.90278337  0.41857815  0.91278098    -0.13600
C1046       C  0.89283803  0.39483089  0.89235003     0.16800
C1047       C  0.86038732  0.39089593  0.88713569     0.03100
C1048       C  0.83895198  0.41089443  0.90178597    -0.12100
C1049       C  0.84878651  0.43404220  0.92325730    -0.03200
C1050       C  0.88144789  0.43724621  0.92897714     0.02300
C1051       C  0.91701801  0.37296814  0.87994728     0.09200
N1052       N  0.84850328  0.36513123  0.86942240     0.65500
H1053       H  0.81422057  0.40715124  0.89731284     0.18400
N1054       N  0.89362343  0.45747010  0.95276565     0.76000
H1055       H  0.92757672  0.42158849  0.91759304     0.09900
C1056       C  0.92242094  0.36808323  0.84778796     0.03600
C1057       C  0.94794339  0.34998401  0.83800536    -0.05100
C1058       C  0.96928796  0.33611769  0.85941847    -0.23500
C1059       C  0.96403699  0.34288757  0.89190039     0.12900
C1060       C  0.93770536  0.35957366  0.90141164    -0.12600
N1061       N  0.90410049  0.38353712  0.82448488     0.64600
H1062       H  0.95176696  0.34883105  0.81305289     0.12400
N1063       N  0.98605049  0.33532006  0.91597568     0.61200
H1064       H  0.93447085  0.36375012  0.92625029     0.08600
O1065       O  0.89283502  0.44849270  0.98093932    -0.53100
O1066       O  0.91264216  0.47879460  0.94519808    -0.39400
O1067       O  0.84600261  0.33887075  0.88258107    -0.39400
O1068       O  0.83306876  0.37027483  0.84469483    -0.37100
O1069       O  0.97842667  0.31484609  0.93587514    -0.38000
O1070       O  0.00516124  0.35631519  0.92437562    -0.34200
O1071       O  0.91083161  0.41135054  0.81740684    -0.35600
O1072       O  0.88799364  0.36741394  0.80557200    -0.39900
C1073       C  0.90450670  0.60221092  0.90961859    -0.13600
C1074       C  0.89570975  0.63116591  0.89735399     0.16800
C1075       C  0.86402884  0.63984372  0.89894088     0.03100
C1076       C  0.84192709  0.61989884  0.91310861    -0.12100
C1077       C  0.85051332  0.59069239  0.92556919    -0.03200
C1078       C  0.88237977  0.58186274  0.92314663     0.02300
C1079       C  0.91990275  0.65137452  0.88219361     0.09200
N1080       N  0.85396836  0.66907427  0.88662655     0.65500
H1081       H  0.81785726  0.62756237  0.91447323     0.18400
N1082       N  0.89240717  0.55140615  0.93181749     0.76000
H1083       H  0.92868527  0.59491928  0.90782866     0.09900
C1084       C  0.94242479  0.66733709  0.90007907     0.03600
C1085       C  0.96645985  0.68406489  0.88528531    -0.05100
C1086       C  0.96948606  0.68604884  0.85228392    -0.23500
C1087       C  0.94740321  0.66777306  0.83437202     0.12900
C1088       C  0.92262907  0.65187472  0.84952435    -0.12600
N1089       N  0.94146720  0.66654599  0.93353878     0.64600
H1090       H  0.98292358  0.69606063  0.90009634     0.12400
N1091       N  0.95071910  0.66204761  0.80151239     0.61200
H1092       H  0.90632745  0.63814233  0.83561598     0.08600
O1093       O  0.90949502  0.54807243  0.95575257    -0.40300
O1094       O  0.89167470  0.53018121  0.91139266    -0.39400
O1095       O  0.84187001  0.67015077  0.85962337    -0.39400
O1096       O  0.85112444  0.69202280  0.90482317    -0.37100
O1097       O  0.96867145  0.64059048  0.79267113    -0.38000
O1098       O  0.92920613  0.67069231  0.78315831    -0.34200
O1099       O  0.96036654  0.64943792  0.94833337    -0.35600
O1100       O  0.92658273  0.68725274  0.94808210    -0.39900
C1101       C  0.89732217  0.61093462  0.07640916    -0.13600
C1102       C  0.89051786  0.61789112  0.10772976     0.16800
C1103       C  0.86277005  0.60647911  0.12127404     0.03100
C1104       C  0.84195580  0.58883969  0.10308818    -0.12100
C1105       C  0.84820789  0.58284515  0.07136615    -0.03200
C1106       C  0.87633399  0.59383773  0.05805451     0.02300
C1107       C  0.91134570  0.64005899  0.12393803     0.09200
N1108       N  0.85449561  0.61409004  0.15271201     0.65500
H1109       H  0.82042830  0.58040624  0.11363291     0.18400
N1110       N  0.88292031  0.58987991  0.02550481     0.76000
H1111       H  0.91842750  0.62015565  0.06570400     0.09900
C1112       C  0.93356120  0.63027716  0.14591098     0.03600
C1113       C  0.95795146  0.65037653  0.15440769    -0.05100
C1114       C  0.96188420  0.68037805  0.14069852    -0.23500
C1115       C  0.93786489  0.69028739  0.11915403     0.12900
C1116       C  0.91282476  0.67031330  0.11217293    -0.12600
N1117       N  0.93349892  0.59905401  0.15754937     0.64600
H1118       H  0.97521960  0.64175519  0.17089307     0.12400
N1119       N  0.93897775  0.71845434  0.10121335     0.61200
H1120       H  0.89575967  0.67751546  0.09474649     0.08600
O1121       O  0.87283385  0.60959316  0.00601136    -0.40300
O1122       O  0.90432570  0.57149670  0.01744319    -0.39400
O1123       O  0.83802590  0.63785507  0.15766489    -0.39400
O1124       O  0.85635033  0.59337901  0.17362766    -0.37100
O1125       O  0.95407710  0.71885547  0.07586918    -0.38000
O1126       O  0.91721709  0.73788837  0.10463399    -0.34200
O1127       O  0.95018281  0.57893359  0.14418390    -0.35600
O1128       O  0.92345350  0.59369974  0.18481190    -0.39900
C1129       C  0.11178252  0.03662369  0.76667732    -0.13600
C1130       C  0.08954805  0.01337733  0.77172859     0.16800
C1131       C  0.08431676  0.99080994  0.74854250     0.03100
C1132       C  0.10187793  0.99151761  0.72089041    -0.12100
C1133       C  0.12631858  0.01365542  0.71594689    -0.03200
C1134       C  0.12975283  0.03737940  0.73941818     0.02300
C1135       C  0.07310415  0.01287446  0.80206651     0.09200
N1136       N  0.06073954  0.96732097  0.75237632     0.65500
H1137       H  0.09506954  0.97488237  0.70320781     0.18400
N1138       N  0.15109617  0.06292146  0.73633097     0.76000
H1139       H  0.11548257  0.05443381  0.78435569     0.09900
C1140       C  0.08381841  0.99363467  0.82637186     0.03600
C1141       C  0.07042580  0.99569927  0.85600362    -0.05100
C1142       C  0.04687199  0.01755761  0.86268203    -0.23500
C1143       C  0.03633757  0.03720749  0.83816056     0.12900
C1144       C  0.04941303  0.03453488  0.80809507    -0.12600
N1145       N  0.10991461  0.97346118  0.82194788     0.64600
H1146       H  0.07924053  0.98027068  0.87406181     0.12400
N1147       N  0.01376902  0.06100084  0.84359851     0.61200
H1148       H  0.04182547  0.05015706  0.78962761     0.08600
O1149       O  0.17584256  0.06269093  0.75261949    -0.40300
O1150       O  0.14018517  0.08893517  0.72801770    -0.39400
O1151       O  0.03480391  0.97030120  0.73847009    -0.39400
O1152       O  0.06833756  0.94093677  0.76290068    -0.37100
O1153       O  0.02289112  0.08757838  0.85260577    -0.38000
O1154       O  0.98618076  0.05755544  0.83340090    -0.34200
O1155       O  0.13714056  0.98343513  0.82805021    -0.35600
O1156       O  0.10530714  0.94451265  0.81923827    -0.39900
C1157       C  0.08853932  0.03267340  0.24313727    -0.13600
C1158       C  0.10813511  0.03964902  0.21792867     0.16800
C1159       C  0.14025856  0.04282352  0.22341562     0.03100
C1160       C  0.15261544  0.03669599  0.25316927    -0.12100
C1161       C  0.13383582  0.02609670  0.27869905    -0.03200
C1162       C  0.10063321  0.02725226  0.27337975     0.02300
C1163       C  0.09543090  0.03915159  0.18550056     0.09200
N1164       N  0.16093857  0.05150150  0.19861570     0.65500
H1165       H  0.17740667  0.04108340  0.25567873     0.18400
N1166       N  0.07837882  0.02409124  0.29807545     0.76000
H1167       H  0.06345639  0.03129540  0.23927080     0.09900
C1168       C  0.09036675  0.01039314  0.17073801     0.03600
C1169       C  0.07816525  0.00936138  0.14037870    -0.05100
C1170       C  0.06962930  0.03670191  0.12395663    -0.23500
C1171       C  0.07528458  0.06577596  0.13875433     0.12900
C1172       C  0.08834712  0.06673500  0.16923758    -0.12600
N1173       N  0.09687365  0.98184134  0.18677417     0.64600
H1174       H  0.07469894  0.98657717  0.12995429     0.12400
N1175       N  0.06667427  0.09437807  0.12404585     0.61200
H1176       H  0.09221202  0.08903211  0.18055550     0.08600
O1177       O  0.06966783  0.04856749  0.31179111    -0.40300
O1178       O  0.05976795  0.00108898  0.29746874    -0.39400
O1179       O  0.16713001  0.07993186  0.19396913    -0.39400
O1180       O  0.17710807  0.03092713  0.18532196    -0.37100
O1181       O  0.03948970  0.10486206  0.12818236    -0.38000
O1182       O  0.08785156  0.11244660  0.11406546    -0.34200
O1183       O  0.07535590  0.96808058  0.20168634    -0.35600
O1184       O  0.12475313  0.97265555  0.18950411    -0.39900
C1185       C  0.21424625  0.53680048  0.26100812    -0.13600
C1186       C  0.20436290  0.51190204  0.24235838     0.16800
C1187       C  0.18736700  0.48741975  0.25619894     0.03100
C1188       C  0.18000228  0.48848498  0.28810046    -0.12100
C1189       C  0.18790635  0.51448746  0.30712952    -0.03200
C1190       C  0.20684241  0.53822168  0.29289545     0.02300
C1191       C  0.21391877  0.51109933  0.20901146     0.09200
N1192       N  0.17696927  0.46134553  0.23804359     0.65500
H1193       H  0.16868780  0.46803498  0.29759449     0.18400
N1194       N  0.22031431  0.56332650  0.31043514     0.76000
H1195       H  0.22870032  0.55506523  0.25088404     0.09900
C1196       C  0.20486696  0.53476511  0.18805085     0.03600
C1197       C  0.21532769  0.53414318  0.15710477    -0.05100
C1198       C  0.23518763  0.51055019  0.14627618    -0.23500
C1199       C  0.24460471  0.48702346  0.16740254     0.12900
C1200       C  0.23386067  0.48745686  0.19847265    -0.12600
N1201       N  0.18427258  0.55909133  0.19755575     0.64600
H1202       H  0.20697282  0.55178411  0.14111548     0.12400
N1203       N  0.26606425  0.46340381  0.15816516     0.61200
H1204       H  0.24173234  0.46965962  0.21466836     0.08600
O1205       O  0.20879337  0.59016881  0.30749755    -0.40300
O1206       O  0.24861680  0.56116676  0.31877000    -0.39400
O1207       O  0.19105852  0.43571004  0.24048912    -0.39400
O1208       O  0.15022290  0.46198789  0.22539165    -0.37100
O1209       O  0.29511728  0.46873083  0.16004149    -0.38000
O1210       O  0.25640814  0.43575416  0.15467114    -0.34200
O1211       O  0.19546231  0.58559234  0.20418726    -0.35600
O1212       O  0.15525865  0.55625496  0.19248210    -0.39900
C1213       C  0.25323380  0.53183556  0.39609959    -0.13600
C1214       C  0.27092643  0.50542802  0.38954204     0.16800
C1215       C  0.26002264  0.48411429  0.36715529     0.03100
C1216       C  0.23128692  0.48912645  0.35234221    -0.12100
C1217       C  0.21199106  0.51494436  0.35962969    -0.03200
C1218       C  0.22457571  0.53750799  0.38121572     0.02300
C1219       C  0.30145928  0.50179520  0.40543292     0.09200
N1220       N  0.27761186  0.45700146  0.35944097     0.65500
H1221       H  0.22315523  0.47160459  0.33589773     0.18400
N1222       N  0.21018729  0.56669202  0.38827062     0.76000
H1223       H  0.26209236  0.54871048  0.41289234     0.09900
C1224       C  0.32474125  0.52473277  0.40171506     0.03600
C1225       C  0.35226337  0.52289149  0.41891290    -0.05100
C1226       C  0.35824915  0.49780715  0.43941891    -0.23500
C1227       C  0.33487287  0.47460635  0.44318016     0.12900
C1228       C  0.30659516  0.47691013  0.42627434    -0.12600
N1229       N  0.32120958  0.54972538  0.37978932     0.64600
H1230       H  0.36930347  0.54144981  0.41562145     0.12400
N1231       N  0.33942650  0.44856432  0.46353815     0.61200
H1232       H  0.28848311  0.45941159  0.42963981     0.08600
O1233       O  0.21592606  0.58984155  0.37093704    -0.40300
O1234       O  0.20223932  0.57185273  0.41624457    -0.39400
O1235       O  0.27095596  0.43135712  0.37241799    -0.39400
O1236       O  0.29449409  0.45717524  0.33524251    -0.37100
O1237       O  0.32653697  0.44834127  0.49010055    -0.38000
O1238       O  0.34970524  0.42342234  0.45241256    -0.34200
O1239       O  0.31544740  0.57675446  0.38974697    -0.35600
O1240       O  0.33147237  0.54646735  0.35230422    -0.39900
C1241       C  0.77128532  0.53320721  0.19367656    -0.13600
C1242       C  0.78833794  0.50752546  0.20470357     0.16800
C1243       C  0.79300573  0.48218319  0.18407127     0.03100
C1244       C  0.78121438  0.48318813  0.15334333    -0.12100
C1245       C  0.76434494  0.50893890  0.14213171    -0.03200
C1246       C  0.75923893  0.53412373  0.16293390     0.02300
C1247       C  0.79654318  0.50559586  0.23885499     0.09200
N1248       N  0.80986739  0.45516339  0.19378416     0.65500
H1249       H  0.78592338  0.46371733  0.13795488     0.18400
N1250       N  0.74023865  0.55995961  0.15402596     0.76000
H1251       H  0.76599208  0.55215572  0.20950082     0.09900
C1252       C  0.81344583  0.52901470  0.25502181     0.03600
C1253       C  0.81665916  0.52776703  0.28793156    -0.05100
C1254       C  0.80110682  0.50480731  0.30615216    -0.23500
C1255       C  0.78685658  0.47973619  0.28890267     0.12900
C1256       C  0.78457494  0.48072240  0.25619072    -0.12600
N1257       N  0.82748690  0.55441353  0.23845892     0.64600
H1258       H  0.83126918  0.54533187  0.29870949     0.12400
N1259       N  0.77296197  0.45333168  0.30382131     0.61200
H1260       H  0.77144603  0.46244867  0.24442746     0.08600
O1261       O  0.75307923  0.58581745  0.14782827    -0.40300
O1262       O  0.71121641  0.55894871  0.15945280    -0.39400
O1263       O  0.79508504  0.42998800  0.19838311    -0.39400
O1264       O  0.83908099  0.45432103  0.18961070    -0.37100
O1265       O  0.74347618  0.45089073  0.30347858    -0.38000
O1266       O  0.78890715  0.42873314  0.30565138    -0.34200
O1267       O  0.81472191  0.58082740  0.23932793    -0.35600
O1268       O  0.85571381  0.55245223  0.23012837    -0.39900
C1269       C  0.70782940  0.50862276  0.34334505    -0.13600
C1270       C  0.70177895  0.50312716  0.37500816     0.16800
C1271       C  0.72654332  0.50592628  0.39662498     0.03100
C1272       C  0.75724273  0.50930536  0.38573037    -0.12100
C1273       C  0.76431055  0.50947022  0.35348001    -0.03200
C1274       C  0.73828881  0.51449119  0.33278437     0.02300
C1275       C  0.66942696  0.49591389  0.38516432     0.09200
N1276       N  0.72089792  0.50623924  0.42965618     0.65500
H1277       H  0.77568412  0.51014935  0.40279745     0.18400
N1278       N  0.74120087  0.52984725  0.30305410     0.76000
H1279       H  0.68857576  0.50970324  0.32678741     0.09900
C1280       C  0.64442422  0.51588270  0.37778764     0.03600
C1281       C  0.61466668  0.50921335  0.38930200    -0.05100
C1282       C  0.60917016  0.48335501  0.40884834    -0.23500
C1283       C  0.63345345  0.46202674  0.41416082     0.12900
C1284       C  0.66337016  0.46836101  0.40209779    -0.12600
N1285       N  0.64932342  0.54453759  0.36126981     0.64600
H1286       H  0.59623164  0.52604577  0.38535439     0.12400
N1287       N  0.62874031  0.43518972  0.43346308     0.61200
H1288       H  0.68218734  0.45219210  0.40678310     0.08600
O1289       O  0.72884115  0.51746114  0.27916606    -0.40300
O1290       O  0.74573861  0.55893327  0.30278419    -0.39400
O1291       O  0.72257483  0.48126200  0.44519326    -0.39400
O1292       O  0.72115586  0.53193677  0.44398803    -0.37100
O1293       O  0.62218990  0.40939070  0.42079166    -0.38000
O1294       O  0.63743563  0.43577566  0.46175224    -0.34200
O1295       O  0.63797044  0.54775880  0.33411096    -0.35600
O1296       O  0.65833437  0.56836314  0.37619680    -0.39900
C1297       C  0.85421152  0.97552505  0.77351898    -0.13600
C1298       C  0.87750214  0.99534643  0.78503593     0.16800
C1299       C  0.88737424  0.02080419  0.76669819     0.03100
C1300       C  0.87448726  0.02544474  0.73680601    -0.12100
C1301       C  0.85275576  0.00408714  0.72342604    -0.03200
C1302       C  0.84164075  0.97947985  0.74342739     0.02300
C1303       C  0.88978519  0.98986350  0.81702778     0.09200
N1304       N  0.91087230  0.04200608  0.77784972     0.65500
H1305       H  0.88165895  0.04632337  0.72465296     0.18400
N1306       N  0.81701723  0.95853711  0.73417027     0.76000
H1307       H  0.84571606  0.95655074  0.78807283     0.09900
C1308       C  0.87810789  0.00675035  0.84257474     0.03600
C1309       C  0.89059929  0.00198170  0.87241359    -0.05100
C1310       C  0.91439235  0.98025875  0.87772421    -0.23500
C1311       C  0.92530447  0.96229283  0.85244661     0.12900
C1312       C  0.91280065  0.96711912  0.82225410    -0.12600
N1313       N  0.85405910  0.02938888  0.83848666     0.64600
H1314       H  0.88294269  0.01669971  0.89141565     0.12400
N1315       N  0.95069965  0.94114758  0.85656410     0.61200
H1316       H  0.92175722  0.95385479  0.80268704     0.08600
O1317       O  0.79192032  0.95792607  0.74970662    -0.40300
O1318       O  0.82249556  0.93666823  0.71529528    -0.39400
O1319       O  0.93882605  0.03853559  0.76911573    -0.39400
O1320       O  0.90272263  0.06786620  0.78909872    -0.37100
O1321       O  0.94511191  0.91247495  0.86038427    -0.38000
O1322       O  0.97839145  0.95023243  0.85142727    -0.34200
O1323       O  0.82578422  0.02095866  0.84070520    -0.35600
O1324       O  0.86091525  0.05798117  0.84042081    -0.39900
C1325       C  0.94221412  0.00138938  0.19184712    -0.13600
C1326       C  0.91016450  0.99455189  0.19496340     0.16800
C1327       C  0.89238437  0.98672634  0.16825425     0.03100
C1328       C  0.90622691  0.98745490  0.13869944    -0.12100
C1329       C  0.93795601  0.99514833  0.13531594    -0.03200
C1330       C  0.95626982  0.00160858  0.16215629     0.02300
C1331       C  0.89445248  0.99899151  0.22536155     0.09200
N1332       N  0.86019557  0.97785460  0.17091652     0.65500
H1333       H  0.89210552  0.98195655  0.11823661     0.18400
N1334       N  0.98852373  0.01031775  0.15935371     0.76000
H1335       H  0.95595972  0.00775632  0.21229797     0.09900
C1336       C  0.89680899  0.97712411  0.24961393     0.03600
C1337       C  0.87988205  0.98128999  0.27724344    -0.05100
C1338       C  0.85984956  0.00718789  0.28162463    -0.23500
C1339       C  0.85955250  0.03023043  0.25735570     0.12900
C1340       C  0.87625199  0.02554090  0.22963546    -0.12600
N1341       N  0.91619966  0.95034456  0.24649624     0.64600
H1342       H  0.88401929  0.96449800  0.29555964     0.12400
N1343       N  0.84198414  0.05838906  0.26008966     0.61200
H1344       H  0.87493657  0.04285083  0.21114510     0.08600
O1345       O  0.00953375  0.99040894  0.16443782    -0.40300
O1346       O  0.99591781  0.03680368  0.14866914    -0.39400
O1347       O  0.83916786  0.99634858  0.16188791    -0.39400
O1348       O  0.85320974  0.94974229  0.17637493    -0.37100
O1349       O  0.85584929  0.08274546  0.26947154    -0.38000
O1350       O  0.81698611  0.06119619  0.24449188    -0.34200
O1351       O  0.94218718  0.94955651  0.26064621    -0.35600
O1352       O  0.90461086  0.92546156  0.23561325    -0.39900
C1353       C  0.24208065  0.50239031  0.79911259    -0.13600
C1354       C  0.21799643  0.52217478  0.78866448     0.16800
C1355       C  0.20211278  0.54049806  0.81083885     0.03100
C1356       C  0.21010955  0.53859750  0.84264672    -0.12100
C1357       C  0.23384080  0.51864437  0.85319316    -0.03200
C1358       C  0.25030831  0.50078305  0.83109396     0.02300
C1359       C  0.20827061  0.52186061  0.75503979     0.09200
N1360       N  0.17699861  0.56037451  0.80166410     0.65500
H1361       H  0.19709866  0.55236891  0.85936547     0.18400
N1362       N  0.27640948  0.48231690  0.84063588     0.76000
H1363       H  0.25465449  0.48834649  0.78231815     0.09900
C1364       C  0.21593698  0.54611652  0.73428603     0.03600
C1365       C  0.20615772  0.54468766  0.70288114    -0.05100
C1366       C  0.18901436  0.51904707  0.69029066    -0.23500
C1367       C  0.18089140  0.49473333  0.71224215     0.12900
C1368       C  0.19054248  0.49677909  0.74379018    -0.12600
N1369       N  0.23515340  0.57169446  0.74420101     0.64600
H1370       H  0.21293748  0.56380790  0.68769193     0.12400
N1371       N  0.16275537  0.46773335  0.70433229     0.61200
H1372       H  0.18418922  0.47816585  0.75983100     0.08600
O1373       O  0.27277189  0.45353945  0.84569644    -0.40300
O1374       O  0.30192826  0.49545909  0.84804816    -0.39400
O1375       O  0.14916245  0.55142065  0.80617996    -0.39400
O1376       O  0.18247082  0.58901596  0.79755024    -0.37100
O1377       O  0.17675855  0.44266111  0.69842412    -0.38000
O1378       O  0.13498927  0.46603892  0.71431199    -0.34200
O1379       O  0.26453103  0.56930564  0.74251026    -0.35600
O1380       O  0.22325770  0.59840003  0.74664226    -0.39900
C1381       C  0.31575709  0.53952664  0.57192869    -0.13600
C1382       C  0.31432919  0.53676198  0.60469541     0.16800
C1383       C  0.34278337  0.53624533  0.62181889     0.03100
C1384       C  0.37167813  0.53776398  0.60600212    -0.12100
C1385       C  0.37288466  0.53956606  0.57319559    -0.03200
C1386       C  0.34449905  0.54087968  0.55619701     0.02300
C1387       C  0.28280029  0.53354126  0.61975330     0.09200
N1388       N  0.34285240  0.53372738  0.65518635     0.65500
H1389       H  0.39325308  0.53595870  0.61933161     0.18400
N1390       N  0.34442853  0.54212207  0.52273169     0.76000
H1391       H  0.29431321  0.53953595  0.55825869     0.09900
C1392       C  0.25946698  0.55583046  0.61442736     0.03600
C1393       C  0.22896559  0.55076514  0.62518210    -0.05100
C1394       C  0.21959121  0.52298702  0.64088794    -0.23500
C1395       C  0.24432167  0.50204753  0.64895035     0.12900
C1396       C  0.27502200  0.50712714  0.63765341    -0.12600
N1397       N  0.26662883  0.58465205  0.59908866     0.64600
H1398       H  0.21323464  0.57005044  0.62200077     0.12400
N1399       N  0.23953794  0.47686822  0.67051877     0.61200
H1400       H  0.29284146  0.49000224  0.64272046     0.08600
O1401       O  0.33771370  0.51782490  0.50744516    -0.40300
O1402       O  0.34330589  0.56825695  0.50918804    -0.39400
O1403       O  0.34838034  0.50767364  0.66771675    -0.39400
O1404       O  0.34536856  0.55815321  0.67145870    -0.37100
O1405       O  0.22663795  0.45194668  0.66144663    -0.38000
O1406       O  0.25409057  0.47702326  0.69632793    -0.34200
O1407       O  0.25664865  0.58930114  0.57161183    -0.35600
O1408       O  0.27599107  0.60753386  0.61523922    -0.39900
C1409       C  0.80163355  0.53453580  0.74086335    -0.13600
C1410       C  0.78162641  0.51086818  0.75138397     0.16800
C1411       C  0.77125358  0.48805197  0.73018889     0.03100
C1412       C  0.78189268  0.48866697  0.69936387    -0.12100
C1413       C  0.80178662  0.51260012  0.68771982    -0.03200
C1414       C  0.81103854  0.53656458  0.70943849     0.02300
C1415       C  0.77145937  0.51099240  0.78450710     0.09200
N1416       N  0.74774692  0.46571081  0.73867589     0.65500
H1417       H  0.77349152  0.47048461  0.68378601     0.18400
N1418       N  0.82718668  0.56460526  0.70062535     0.76000
H1419       H  0.80892074  0.55265171  0.75708083     0.09900
C1420       C  0.77963595  0.48670277  0.80506923     0.03600
C1421       C  0.77083227  0.48816116  0.83648206    -0.05100
C1422       C  0.75482584  0.51403555  0.84854072    -0.23500
C1423       C  0.74676865  0.53854660  0.82787560     0.12900
C1424       C  0.75485235  0.53661777  0.79608322    -0.12600
N1425       N  0.79924031  0.46174065  0.79516932     0.64600
H1426       H  0.77820472  0.46948894  0.85191285     0.12400
N1427       N  0.73053594  0.56549712  0.83857679     0.61200
H1428       H  0.74861512  0.55550340  0.78040675     0.08600
O1429       O  0.85248268  0.57146419  0.71446110    -0.40300
O1430       O  0.81172958  0.58648815  0.68851164    -0.39400
O1431       O  0.71941702  0.47387136  0.73821784    -0.39400
O1432       O  0.75411875  0.43705569  0.73785135    -0.37100
O1433       O  0.74600253  0.58970033  0.84559153    -0.38000
O1434       O  0.70146806  0.56760619  0.83366036    -0.34200
O1435       O  0.82846290  0.46617473  0.79398843    -0.35600
O1436       O  0.78873720  0.43417733  0.79577665    -0.39900
C1437       C  0.72300119  0.53417531  0.62453814    -0.13600
C1438       C  0.71545071  0.51007308  0.60391409     0.16800
C1439       C  0.73532224  0.48435630  0.60188811     0.03100
C1440       C  0.76341334  0.48419762  0.61881061    -0.12100
C1441       C  0.77359831  0.51027176  0.63685507    -0.03200
C1442       C  0.75086933  0.53410422  0.64177789     0.02300
C1443       C  0.68599150  0.51201538  0.58583723     0.09200
N1444       N  0.72691966  0.45777256  0.58344622     0.65500
H1445       H  0.77679710  0.46300900  0.61759432     0.18400
N1446       N  0.75579377  0.55928566  0.66314031     0.76000
H1447       H  0.70705014  0.55351745  0.62723007     0.09900
C1448       C  0.65723906  0.51395176  0.60154435     0.03600
C1449       C  0.62979858  0.51801766  0.58450128    -0.05100
C1450       C  0.62994212  0.51953012  0.55159819    -0.23500
C1451       C  0.65883290  0.51836700  0.53570482     0.12900
C1452       C  0.68667339  0.51456960  0.55297979    -0.12600
N1453       N  0.65533741  0.51027389  0.63479055     0.64600
H1454       H  0.60788643  0.51871624  0.59721952     0.12400
N1455       N  0.66024722  0.51978977  0.50229281     0.61200
H1456       H  0.70886102  0.51370346  0.54077683     0.08600
O1457       O  0.74597538  0.55611823  0.69083018    -0.40300
O1458       O  0.75844752  0.58651925  0.65216756    -0.39400
O1459       O  0.74022121  0.45344055  0.55747561    -0.39400
O1460       O  0.71176985  0.43568159  0.59593219    -0.37100
O1461       O  0.66559096  0.54560290  0.48907500    -0.38000
O1462       O  0.66300687  0.49493785  0.48682425    -0.34200
O1463       O  0.64887258  0.53348256  0.65163564    -0.35600
O1464       O  0.65322483  0.48321752  0.64626118    -0.39900
C1465       C  0.97241568  0.27889329  0.29905977    -0.13600
C1466       C  0.99612578  0.29808414  0.28679827     0.16800
C1467       C  0.01843333  0.31085300  0.30785667     0.03100
C1468       C  0.01799116  0.30216157  0.33973387    -0.12100
C1469       C  0.99508353  0.28150367  0.35161328    -0.03200
C1470       C  0.97179577  0.27038701  0.33076197     0.02300
C1471       C  0.99688799  0.30354377  0.25204050     0.09200
N1472       N  0.04149381  0.33282853  0.29749943     0.65500
H1473       H  0.03538318  0.31216193  0.35541592     0.18400
N1474       N  0.94746296  0.24990345  0.34097731     0.76000
H1475       H  0.95415534  0.27003131  0.28371306     0.09900
C1476       C  0.99424312  0.27838673  0.23096259     0.03600
C1477       C  0.99120788  0.28374007  0.19876288    -0.05100
C1478       C  0.99388450  0.31381061  0.18535375    -0.23500
C1479       C  0.99481636  0.33932722  0.20707879     0.12900
C1480       C  0.99642938  0.33383277  0.23967300    -0.12600
N1481       N  0.99525035  0.24682485  0.24177767     0.64600
H1482       H  0.98656013  0.26343760  0.18474306     0.12400
N1483       N  0.99139073  0.37097945  0.19702568     0.61200
H1484       H  0.99614493  0.35356502  0.25544777     0.08600
O1485       O  0.95312552  0.22119070  0.34358261    -0.40300
O1486       O  0.91945893  0.25865795  0.33822894    -0.39400
O1487       O  0.03695306  0.36152845  0.30188642    -0.39400
O1488       O  0.06877239  0.32357091  0.29144821    -0.37100
O1489       O  0.96467696  0.38326022  0.19864237    -0.38000
O1490       O  0.01514897  0.38857439  0.19574851    -0.34200
O1491       O  0.97114644  0.22976160  0.23941462    -0.35600
O1492       O  0.02146845  0.23434849  0.24675985    -0.39900
C1493       C  0.97697271  0.29042677  0.76306926    -0.13600
C1494       C  0.00086104  0.30302042  0.74453124     0.16800
C1495       C  0.02385695  0.32189205  0.75887509     0.03100
C1496       C  0.02307273  0.32705930  0.79132806    -0.12100
C1497       C  0.99905045  0.31453852  0.81070712    -0.03200
C1498       C  0.97584295  0.29559736  0.79551182     0.02300
C1499       C  0.00084329  0.29602253  0.71033726     0.09200
N1500       N  0.04777371  0.33685763  0.74079422     0.65500
H1501       H  0.04246271  0.34016619  0.80097799     0.18400
N1502       N  0.95123963  0.28051678  0.81259968     0.76000
H1503       H  0.95915079  0.27581165  0.75226672     0.09900
C1504       C  0.02422513  0.27768046  0.69623540     0.03600
C1505       C  0.02229005  0.27046542  0.66420368    -0.05100
C1506       C  0.99716031  0.28082379  0.64569265    -0.23500
C1507       C  0.97397332  0.29938396  0.65980131     0.12900
C1508       C  0.97585652  0.30659136  0.69180429    -0.12600
N1509       N  0.04920674  0.26477858  0.71431308     0.64600
H1510       H  0.04031128  0.25613495  0.65388347     0.12400
N1511       N  0.94992043  0.31337157  0.64137304     0.61200
H1512       H  0.95794797  0.32102039  0.70218495     0.08600
O1513       O  0.92398864  0.29160879  0.81109359    -0.40300
O1514       O  0.95425116  0.25211373  0.81962557    -0.39400
O1515       O  0.04189924  0.36264715  0.72787865    -0.39400
O1516       O  0.07595720  0.32915179  0.74489131    -0.37100
O1517       O  0.92268573  0.30175965  0.64090522    -0.38000
O1518       O  0.95654283  0.33614800  0.62386124    -0.34200
O1519       O  0.04443380  0.23979104  0.72923291    -0.35600
O1520       O  0.07700697  0.27306452  0.70850475    -0.39900
C1521       C  0.89027026  0.38354997  0.37850673    -0.13600
C1522       C  0.87724101  0.40792909  0.39566070     0.16800
C1523       C  0.88352767  0.41043437  0.42806794     0.03100
C1524       C  0.90348906  0.38911846  0.44248844    -0.12100
C1525       C  0.91603481  0.36433077  0.42549486    -0.03200
C1526       C  0.90900999  0.36137007  0.39325702     0.02300
C1527       C  0.85630880  0.42983047  0.37948075     0.09200
N1528       N  0.86933306  0.43393908  0.44684865     0.65500
H1529       H  0.90809018  0.39116319  0.46741823     0.18400
N1530       N  0.91996942  0.33560388  0.37534889     0.76000
H1531       H  0.88501972  0.38118445  0.35373842     0.09900
C1532       C  0.86759905  0.45066997  0.35682664     0.03600
C1533       C  0.84752340  0.47296523  0.34419171    -0.05100
C1534       C  0.81582084  0.47553407  0.35377658    -0.23500
C1535       C  0.80376441  0.45086239  0.37333535     0.12900
C1536       C  0.82446473  0.42912022  0.38627474    -0.12600
N1537       N  0.90013848  0.45182865  0.34909550     0.64600
H1538       H  0.85765917  0.49032940  0.32871386     0.12400
N1539       N  0.77137050  0.44617660  0.38059852     0.61200
H1540       H  0.81549685  0.41130804  0.40198757     0.08600
O1541       O  0.90266510  0.31178885  0.37263198    -0.40300
O1542       O  0.94234689  0.33958800  0.35650355    -0.39400
O1543       O  0.84334132  0.42810775  0.45964981    -0.39400
O1544       O  0.88619409  0.45571531  0.45764934    -0.37100
O1545       O  0.75472425  0.43048327  0.36185355    -0.38000
O1546       O  0.76370703  0.44580256  0.40912811    -0.34200
O1547       O  0.90913377  0.44179401  0.32288134    -0.35600
O1548       O  0.91874149  0.46775844  0.36577025    -0.39900
C1549       C  0.85694125  0.43475028  0.64570801    -0.13600
C1550       C  0.86065746  0.43331630  0.61329100     0.16800
C1551       C  0.84808110  0.45664133  0.59427118     0.03100
C1552       C  0.83215790  0.48124516  0.60786286    -0.12100
C1553       C  0.82692535  0.48311240  0.64066162    -0.03200
C1554       C  0.84060035  0.45919999  0.65983887     0.02300
C1555       C  0.87946110  0.40840852  0.59950911     0.09200
N1556       N  0.85164179  0.45585207  0.56098193     0.65500
H1557       H  0.82283133  0.49892202  0.59232542     0.18400
N1558       N  0.84058885  0.45964847  0.69336324     0.76000
H1559       H  0.86757574  0.41701673  0.66032777     0.09900
C1560       C  0.91235428  0.40959912  0.60128731     0.03600
C1561       C  0.92994493  0.38766055  0.58522912    -0.05100
C1562       C  0.91512026  0.36371374  0.56852835    -0.23500
C1563       C  0.88221241  0.36185335  0.56740752     0.12900
C1564       C  0.86452306  0.38439928  0.58276532    -0.12600
N1565       N  0.92818584  0.43309321  0.61910854     0.64600
H1566       H  0.95529955  0.38895426  0.58630279     0.12400
N1567       N  0.86671313  0.33837362  0.54917211     0.61200
H1568       H  0.83919277  0.38361762  0.58111938     0.08600
O1569       O  0.86197640  0.47446033  0.70751649    -0.40300
O1570       O  0.82663633  0.43794115  0.70779016    -0.39400
O1571       O  0.82992967  0.44463716  0.54420234    -0.39400
O1572       O  0.87330991  0.47147331  0.54828747    -0.37100
O1573       O  0.86867546  0.33904508  0.51967665    -0.38000
O1574       O  0.85512555  0.31470472  0.56250402    -0.34200
O1575       O  0.93909398  0.42627921  0.64576184    -0.35600
O1576       O  0.93740685  0.45766603  0.60562119    -0.39900
C1577       C  0.09196707  0.39702035  0.61443968    -0.13600
C1578       C  0.10390973  0.42161671  0.59610401     0.16800
C1579       C  0.09661503  0.42238557  0.56376325     0.03100
C1580       C  0.07863615  0.39836707  0.55032211    -0.12100
C1581       C  0.06750627  0.37338967  0.56850817    -0.03200
C1582       C  0.07362815  0.37321128  0.60098265     0.02300
C1583       C  0.12497791  0.44534497  0.61086626     0.09200
N1584       N  0.10671201  0.44766856  0.54432732     0.65500
H1585       H  0.07369441  0.39904485  0.52538550     0.18400
N1586       N  0.06018278  0.34975212  0.62070978     0.76000
H1587       H  0.09706980  0.39619607  0.63931680     0.09900
C1588       C  0.11477429  0.46449217  0.63532459     0.03600
C1589       C  0.13532760  0.48621283  0.64874995    -0.05100
C1590       C  0.16712724  0.48953082  0.63969314    -0.23500
C1591       C  0.17684894  0.47053274  0.61372747     0.12900
C1592       C  0.15591586  0.44857778  0.60050733    -0.12600
N1593       N  0.08303968  0.46343114  0.64585592     0.64600
H1594       H  0.12587122  0.50159229  0.66630411     0.12400
N1595       N  0.20633363  0.47429100  0.59813393     0.61200
H1596       H  0.16380962  0.43429464  0.58119972     0.08600
O1597       O  0.07670894  0.32745936  0.63041808    -0.40300
O1598       O  0.03121801  0.35003421  0.62647401    -0.39400
O1599       O  0.12904250  0.44357239  0.52553061    -0.39400
O1600       O  0.08868855  0.47049258  0.54018485    -0.37100
O1601       O  0.22538585  0.45196082  0.59875502    -0.38000
O1602       O  0.20830074  0.49339106  0.57570103    -0.34200
O1603       O  0.07637221  0.44803760  0.67018631    -0.35600
O1604       O  0.06404770  0.48362715  0.63599744    -0.39900
C1605       C  0.14318542  0.44344840  0.38818992    -0.13600
C1606       C  0.11519363  0.43923364  0.37181711     0.16800
C1607       C  0.10803129  0.45927145  0.34698300     0.03100
C1608       C  0.12947448  0.48245286  0.33840663    -0.12100
C1609       C  0.15889869  0.48649434  0.35352245    -0.03200
C1610       C  0.16477514  0.46666809  0.38015853     0.02300
C1611       C  0.09349926  0.41483957  0.38316059     0.09200
N1612       N  0.07918203  0.45642619  0.33011044     0.65500
H1613       H  0.12300231  0.49745599  0.31932649     0.18400
N1614       N  0.19062027  0.47035599  0.40138672     0.76000
H1615       H  0.14783716  0.42915570  0.40865290     0.09900
C1616       C  0.10360188  0.38380632  0.38513719     0.03600
C1617       C  0.08679060  0.36233985  0.40290666    -0.05100
C1618       C  0.05957836  0.37091491  0.41909544    -0.23500
C1619       C  0.04814302  0.40164989  0.41526828     0.12900
C1620       C  0.06531320  0.42333220  0.39747074    -0.12600
N1621       N  0.13181906  0.37401784  0.37031300     0.64600
H1622       H  0.09597050  0.33893493  0.40472907     0.12400
N1623       N  0.01957399  0.41144067  0.42943189     0.61200
H1624       H  0.05744903  0.44725842  0.39618550     0.08600
O1625       O  0.18803156  0.48895422  0.42409248    -0.40300
O1626       O  0.20967262  0.44815429  0.40409795    -0.39400
O1627       O  0.05794686  0.47622195  0.33451069    -0.39400
O1628       O  0.07790103  0.43922749  0.30617040    -0.37100
O1629       O  0.02054428  0.42617126  0.45500105    -0.38000
O1630       O  0.99474039  0.41168139  0.41329366    -0.34200
O1631       O  0.15631322  0.37071834  0.38659485    -0.35600
O1632       O  0.13027595  0.36160616  0.34356123    -0.39900
C1633       C  0.08525958  0.11187616  0.58821551    -0.13600
C1634       C  0.09829546  0.12183096  0.61669296     0.16800
C1635       C  0.09709702  0.15349809  0.62480839     0.03100
C1636       C  0.08167001  0.17442324  0.60503901    -0.12100
C1637       C  0.06761681  0.16444306  0.57676363    -0.03200
C1638       C  0.06990579  0.13265232  0.56831190     0.02300
C1639       C  0.11115426  0.09805870  0.63804770     0.09200
N1640       N  0.11067525  0.16463518  0.65336152     0.65500
H1641       H  0.08051531  0.19861769  0.61215086     0.18400
N1642       N  0.05705166  0.12090393  0.53965817     0.76000
H1643       H  0.08664881  0.08755762  0.58156606     0.09900
C1644       C  0.09146389  0.07475712  0.64995237     0.03600
C1645       C  0.10430902  0.04926646  0.66508395    -0.05100
C1646       C  0.13706896  0.04568121  0.66953644    -0.23500
C1647       C  0.15667393  0.07153146  0.66053046     0.12900
C1648       C  0.14334315  0.09679448  0.64418326    -0.12600
N1649       N  0.05824845  0.07579078  0.64550356     0.64600
H1650       H  0.08817602  0.03093094  0.67199503     0.12400
N1651       N  0.18931026  0.07409628  0.66825690     0.61200
H1652       H  0.15834803  0.11554121  0.63592887     0.08600
O1653       O  0.03077409  0.10723734  0.53999315    -0.40300
O1654       O  0.07467489  0.11771549  0.51622711    -0.39400
O1655       O  0.13765607  0.17683295  0.65287851    -0.39400
O1656       O  0.09341697  0.16872891  0.67691062    -0.37100
O1657       O  0.19700484  0.08241783  0.69554896    -0.38000
O1658       O  0.20849511  0.07960687  0.64649643    -0.34200
O1659       O  0.04580593  0.06021628  0.62361999    -0.35600
O1660       O  0.04126903  0.08563402  0.66744050    -0.39900
C1661       C  0.89499269  0.13826599  0.62017373    -0.13600
C1662       C  0.89995700  0.10712345  0.61187695     0.16800
C1663       C  0.91862085  0.10081562  0.58537424     0.03100
C1664       C  0.93227516  0.12552680  0.56834245    -0.12100
C1665       C  0.92749110  0.15695403  0.57667012    -0.03200
C1666       C  0.90832681  0.16297747  0.60308861     0.02300
C1667       C  0.88479475  0.08209003  0.63114838     0.09200
N1668       N  0.92264123  0.06965418  0.57433490     0.65500
H1669       H  0.94630179  0.11990286  0.54804903     0.18400
N1670       N  0.90214764  0.19399765  0.61330560     0.76000
H1671       H  0.88064445  0.14351024  0.64036864     0.09900
C1672       C  0.90228233  0.06052700  0.64858463     0.03600
C1673       C  0.88695635  0.03811363  0.66696453    -0.05100
C1674       C  0.85393587  0.03679032  0.67061986    -0.23500
C1675       C  0.83642272  0.05869900  0.65220660     0.12900
C1676       C  0.85205979  0.08089228  0.63337136    -0.12600
N1677       N  0.93573942  0.06202396  0.64949663     0.64600
H1678       H  0.90146883  0.02152492  0.67900719     0.12400
N1679       N  0.80295051  0.05835160  0.65042508     0.61200
H1680       H  0.83828051  0.09720861  0.61977214     0.08600
O1681       O  0.91870315  0.20578413  0.63486552    -0.40300
O1682       O  0.87646954  0.20651524  0.60605247    -0.39400
O1683       O  0.90179733  0.05769499  0.55698035    -0.39400
O1684       O  0.94962515  0.05786563  0.57468914    -0.37100
O1685       O  0.78804859  0.08035082  0.66290076    -0.38000
O1686       O  0.78978030  0.04297544  0.62883425    -0.34200
O1687       O  0.94885237  0.08110329  0.66791543    -0.35600
O1688       O  0.95128614  0.03933391  0.63926177    -0.39900
C1689       C  0.89861109  0.06955062  0.34987769    -0.13600
C1690       C  0.87880441  0.09136666  0.36334665     0.16800
C1691       C  0.84675215  0.09081622  0.35466078     0.03100
C1692       C  0.83515042  0.06693682  0.33531735    -0.12100
C1693       C  0.85382332  0.04132797  0.32714568    -0.03200
C1694       C  0.88680755  0.04413529  0.33328654     0.02300
C1695       C  0.89284567  0.11501619  0.38485158     0.09200
N1696       N  0.82524954  0.11345307  0.36610099     0.65500
H1697       H  0.81111316  0.06832451  0.32773542     0.18400
N1698       N  0.90898780  0.02101450  0.32418864     0.76000
H1699       H  0.92366866  0.07130967  0.35343878     0.09900
C1700       C  0.91515916  0.10700667  0.40822820     0.03600
C1701       C  0.92971132  0.13027300  0.42605595    -0.05100
C1702       C  0.92184099  0.16166539  0.42229327    -0.23500
C1703       C  0.89830349  0.16944211  0.40004736     0.12900
C1704       C  0.88529328  0.14640906  0.38085524    -0.12600
N1705       N  0.92287954  0.07536859  0.41506494     0.64600
H1706       H  0.94721611  0.12346513  0.44314926     0.12400
N1707       N  0.88633626  0.20031415  0.39705332     0.61200
H1708       H  0.86909908  0.15339439  0.36264332     0.08600
O1709       O  0.92741282  0.02714591  0.30191612    -0.40300
O1710       O  0.91659780  0.00011264  0.34355071    -0.39400
O1711       O  0.81222305  0.13185707  0.34707003    -0.39400
O1712       O  0.81447750  0.11069153  0.39346516    -0.37100
O1713       O  0.88950601  0.21449719  0.37137151    -0.38000
O1714       O  0.86556167  0.20924594  0.41589802    -0.34200
O1715       O  0.94934664  0.06530798  0.40696581    -0.35600
O1716       O  0.90858141  0.06179598  0.43707670    -0.39900
C1717       C  0.11616154  0.14460982  0.39832484    -0.13600
C1718       C  0.09767304  0.12154287  0.38394703     0.16800
C1719       C  0.06496823  0.12119656  0.38887175     0.03100
C1720       C  0.05154147  0.14316903  0.40854007    -0.12100
C1721       C  0.06995669  0.16606572  0.42301776    -0.03200
C1722       C  0.10252424  0.16704910  0.41761523     0.02300
C1723       C  0.11292746  0.09578426  0.36712375     0.09200
N1724       N  0.04497652  0.09886631  0.37381388     0.65500
H1725       H  0.02638559  0.14273737  0.41199190     0.18400
N1726       N  0.12224207  0.18934614  0.43301719     0.76000
H1727       H  0.14136658  0.14450457  0.39553241     0.09900
C1728       C  0.13149074  0.10055619  0.34052990     0.03600
C1729       C  0.14332065  0.07491611  0.32440730    -0.05100
C1730       C  0.13776445  0.04376129  0.33416422    -0.23500
C1731       C  0.11817390  0.03958871  0.36142198     0.12900
C1732       C  0.10762734  0.06556718  0.37779388    -0.12600
N1733       N  0.13771344  0.13121994  0.32889396     0.64600
H1734       H  0.15691077  0.07948463  0.30349201     0.12400
N1735       N  0.10494592  0.01044141  0.37152086     0.61200
H1736       H  0.09328588  0.06193451  0.39841749     0.08600
O1737       O  0.13473161  0.18224859  0.45888778    -0.40300
O1738       O  0.13301864  0.21212828  0.41762425    -0.39400
O1739       O  0.03288445  0.07720333  0.38986546    -0.39400
O1740       O  0.03331133  0.10537089  0.34741147    -0.37100
O1741       O  0.11080943  0.00125289  0.39902702    -0.38000
O1742       O  0.07969562  0.00122489  0.35909086    -0.34200
O1743       O  0.16315739  0.14463190  0.33603238    -0.35600
O1744       O  0.12157829  0.14164015  0.30642847    -0.39900
C1745       C  0.97146852  0.75392171  0.29363461    -0.13600
C1746       C  0.99458154  0.73337213  0.28296124     0.16800
C1747       C  0.01823031  0.72366127  0.30385201     0.03100
C1748       C  0.01794813  0.73379903  0.33492542    -0.12100
C1749       C  0.99439231  0.75362399  0.34588268    -0.03200
C1750       C  0.97126851  0.76413178  0.32482766     0.02300
C1751       C  0.99443597  0.72328318  0.24972457     0.09200
N1752       N  0.04192757  0.70239217  0.29427553     0.65500
H1753       H  0.03567187  0.72507227  0.35087594     0.18400
N1754       N  0.94851662  0.78636142  0.33443252     0.76000
H1755       H  0.95391005  0.76258868  0.27750204     0.09900
C1756       C  0.96843617  0.70814248  0.23638418     0.03600
C1757       C  0.96845841  0.70024374  0.20462376    -0.05100
C1758       C  0.99475421  0.70576297  0.18495311    -0.23500
C1759       C  0.02053203  0.72226827  0.19896589     0.12900
C1760       C  0.02008518  0.73034120  0.23077129    -0.12600
N1761       N  0.94182428  0.70002136  0.25498617     0.64600
H1762       H  0.94683286  0.69046411  0.19584099     0.12400
N1763       N  0.04715482  0.73229049  0.18139761     0.61200
H1764       H  0.03981721  0.74309284  0.24057994     0.08600
O1765       O  0.92026621  0.77823867  0.33778886    -0.40300
O1766       O  0.95709119  0.81361893  0.34167545    -0.39400
O1767       O  0.06954351  0.71226203  0.29027908    -0.39400
O1768       O  0.03706355  0.67348039  0.29708438    -0.37100
O1769       O  0.04788044  0.76009891  0.17169884    -0.38000
O1770       O  0.07282486  0.71852132  0.18580621    -0.34200
O1771       O  0.91720639  0.71597647  0.25284741    -0.35600
O1772       O  0.94071845  0.67365644  0.26809169    -0.39900
C1773       C  0.96969023  0.72549497  0.68612385    -0.13600
C1774       C  0.99584745  0.73470638  0.70394391     0.16800
C1775       C  0.02020221  0.75139573  0.68893666     0.03100
C1776       C  0.01769500  0.75887807  0.65699476    -0.12100
C1777       C  0.99126465  0.75003532  0.63922968    -0.03200
C1778       C  0.96713054  0.73297224  0.65425184     0.02300
C1779       C  0.99718711  0.72602278  0.73783461     0.09200
N1780       N  0.04750829  0.76128317  0.70576586     0.65500
H1781       H  0.03665880  0.77176099  0.64604374     0.18400
N1782       N  0.94107645  0.72070853  0.63707230     0.76000
H1783       H  0.95136439  0.71155842  0.69684821     0.09900
C1784       C  0.97233307  0.73293375  0.75803012     0.03600
C1785       C  0.97346121  0.72358286  0.78930984    -0.05100
C1786       C  0.99911916  0.70747386  0.80257207    -0.23500
C1787       C  0.02472206  0.70109760  0.78181046     0.12900
C1788       C  0.02281771  0.70965106  0.74994059    -0.12600
N1789       N  0.94629755  0.75104089  0.74764308     0.64600
H1790       H  0.95403575  0.73000183  0.80384900     0.12400
N1791       N  0.05376055  0.68802428  0.79200370     0.61200
H1792       H  0.04205149  0.70388622  0.73458037     0.08600
O1793       O  0.91486981  0.73395805  0.63892923    -0.40300
O1794       O  0.94234861  0.69316366  0.62689407    -0.39400
O1795       O  0.07318370  0.74776606  0.70092383    -0.39400
O1796       O  0.04758679  0.78741854  0.71927856    -0.37100
O1797       O  0.06057515  0.66091873  0.78297400    -0.38000
O1798       O  0.07580581  0.70615544  0.79993442    -0.34200
O1799       O  0.91969551  0.73828308  0.74493864    -0.35600
O1800       O  0.94834993  0.78039034  0.74811980    -0.39900
C1801       C  0.06614873  0.60945036  0.39240579    -0.13600
C1802       C  0.09750031  0.61571092  0.38506415     0.16800
C1803       C  0.11034040  0.64532117  0.39094645     0.03100
C1804       C  0.09226736  0.66786032  0.40563268    -0.12100
C1805       C  0.06130678  0.66133997  0.41470954    -0.03200
C1806       C  0.04779570  0.63212802  0.40686189     0.02300
C1807       C  0.11736311  0.59054311  0.37342725     0.09200
N1808       N  0.14223750  0.65226742  0.38355644     0.65500
H1809       H  0.10306015  0.69014750  0.41112776     0.18400
N1810       N  0.01543758  0.62544006  0.41247162     0.76000
H1811       H  0.05607347  0.58675096  0.38725614     0.09900
C1812       C  0.12898539  0.56822162  0.39413998     0.03600
C1813       C  0.14883542  0.54532165  0.38311265    -0.05100
C1814       C  0.15807845  0.54343114  0.35137878    -0.23500
C1815       C  0.14277336  0.56426024  0.32985878     0.12900
C1816       C  0.12406758  0.58836373  0.34152890    -0.12600
N1817       N  0.12068963  0.56835905  0.42657837     0.64600
H1818       H  0.15747714  0.52884012  0.39998287     0.12400
N1819       N  0.14182111  0.55953778  0.29659010     0.61200
H1820       H  0.11318306  0.60451675  0.32532383     0.08600
O1821       O  0.00782021  0.60864593  0.43555995    -0.40300
O1822       O  0.99575050  0.63002634  0.39084176    -0.39400
O1823       O  0.14846190  0.66916981  0.36013942    -0.39400
O1824       O  0.16346345  0.64631241  0.40328194    -0.37100
O1825       O  0.12141735  0.54117797  0.28547742    -0.38000
O1826       O  0.15241368  0.58067140  0.27888154    -0.34200
O1827       O  0.10142990  0.54833379  0.43672240    -0.35600
O1828       O  0.13694855  0.58397646  0.44577645    -0.39900
C1829       C  0.12526607  0.58867937  0.64307096    -0.13600
C1830       C  0.12347823  0.59013205  0.61028322     0.16800
C1831       C  0.14149214  0.56963422  0.59257801     0.03100
C1832       C  0.16043979  0.54801115  0.60761386    -0.12100
C1833       C  0.16353833  0.54606260  0.64069862    -0.03200
C1834       C  0.14449144  0.56683178  0.65854784     0.02300
C1835       C  0.10410157  0.61416042  0.59464793     0.09200
N1836       N  0.14201414  0.57130196  0.55911127     0.65500
H1837       H  0.17370222  0.53280823  0.59285162     0.18400
N1838       N  0.14254469  0.56560548  0.69195849     0.76000
H1839       H  0.11114149  0.60439411  0.65685978     0.09900
C1840       C  0.07533943  0.60679223  0.58001995     0.03600
C1841       C  0.05865120  0.62998189  0.56399192    -0.05100
C1842       C  0.06992798  0.66085148  0.56234378    -0.23500
C1843       C  0.09900060  0.66799988  0.57714555     0.12900
C1844       C  0.11560036  0.64470781  0.59301018    -0.12600
N1845       N  0.06225654  0.57610893  0.58207589     0.64600
H1846       H  0.03641386  0.62381263  0.55328409     0.12400
N1847       N  0.11259665  0.69851962  0.57575888     0.61200
H1848       H  0.13793192  0.65044537  0.60381536     0.08600
O1849       O  0.12293770  0.54734027  0.70447396    -0.40300
O1850       O  0.15287896  0.58837478  0.70770838    -0.39400
O1851       O  0.16288091  0.58764322  0.54598213    -0.39400
O1852       O  0.12790494  0.55061208  0.54337965    -0.37100
O1853       O  0.10936343  0.71671922  0.59870905    -0.38000
O1854       O  0.13345301  0.70430569  0.55565169    -0.34200
O1855       O  0.04344403  0.56980896  0.60395747    -0.35600
O1856       O  0.06334147  0.55835494  0.55856962    -0.39900
C1857       C  0.87513478  0.57133053  0.63270521    -0.13600
C1858       C  0.86030526  0.59174809  0.61208786     0.16800
C1859       C  0.82914056  0.58618993  0.60351926     0.03100
C1860       C  0.81303313  0.56090230  0.61624858    -0.12100
C1861       C  0.82659580  0.54068557  0.63880876    -0.03200
C1862       C  0.85932184  0.54548209  0.64523380     0.02300
C1863       C  0.87907737  0.61560225  0.59581143     0.09200
N1864       N  0.81426688  0.60424701  0.57959776     0.65500
H1865       H  0.79030352  0.55665514  0.60615655     0.18400
N1866       N  0.87815721  0.52281867  0.66096896     0.76000
H1867       H  0.89989050  0.57443213  0.63766509     0.09900
C1868       C  0.87407085  0.64758862  0.60031950     0.03600
C1869       C  0.89139617  0.66926921  0.58305959    -0.05100
C1870       C  0.91465337  0.65974620  0.56189333    -0.23500
C1871       C  0.91971536  0.62734376  0.55774433     0.12900
C1872       C  0.90176424  0.60577873  0.57453916    -0.12600
N1873       N  0.85270010  0.65847256  0.62346812     0.64600
H1874       H  0.88706680  0.69378508  0.58705956     0.12400
N1875       N  0.94288820  0.61568265  0.53679758     0.61200
H1876       H  0.90552981  0.58107887  0.57091549     0.08600
O1877       O  0.89281673  0.50355222  0.64430515    -0.40300
O1878       O  0.88931259  0.52936700  0.68758288    -0.39400
O1879       O  0.81789592  0.59667846  0.55128271    -0.39400
O1880       O  0.79185614  0.62179485  0.58682903    -0.37100
O1881       O  0.93462461  0.60577741  0.51016256    -0.38000
O1882       O  0.96961150  0.60879374  0.54734521    -0.34200
O1883       O  0.86235431  0.66228360  0.65119925    -0.35600
O1884       O  0.82780105  0.67166695  0.61485572    -0.39900
C1885       C  0.88245183  0.63742418  0.37837721    -0.13600
C1886       C  0.86663642  0.61642898  0.39829100     0.16800
C1887       C  0.87169730  0.61926514  0.43110647     0.03100
C1888       C  0.89321430  0.64123117  0.44286015    -0.12100
C1889       C  0.90900811  0.66195151  0.42294997    -0.03200
C1890       C  0.90284703  0.66047106  0.39042048     0.02300
C1891       C  0.84833225  0.58944459  0.38474040     0.09200
N1892       N  0.85438241  0.60076988  0.45304947     0.65500
H1893       H  0.89673638  0.64287285  0.46798644     0.18400
N1894       N  0.91800250  0.68141612  0.36916179     0.76000
H1895       H  0.87987961  0.63537236  0.35322937     0.09900
C1896       C  0.82575532  0.59225246  0.36067239     0.03600
C1897       C  0.81014144  0.56559028  0.34896871    -0.05100
C1898       C  0.81704904  0.53496518  0.35913146    -0.23500
C1899       C  0.83826179  0.53311411  0.38557337     0.12900
C1900       C  0.85433719  0.55966096  0.39623120    -0.12600
N1901       N  0.81815787  0.62194921  0.34768084     0.64600
H1902       H  0.79298337  0.56905124  0.33083336     0.12400
N1903       N  0.84290401  0.50570990  0.40422353     0.61200
H1904       H  0.87164038  0.55676967  0.41459996     0.08600
O1905       O  0.90267819  0.70352163  0.35723296    -0.40300
O1906       O  0.94415865  0.67425681  0.35767752    -0.39400
O1907       O  0.86868906  0.58174022  0.47045477    -0.39400
O1908       O  0.82699297  0.60885088  0.46025434    -0.37100
O1909       O  0.87049393  0.49579749  0.40715647    -0.38000
O1910       O  0.82399429  0.50005247  0.42618902    -0.34200
O1911       O  0.82797555  0.62891542  0.32067937    -0.35600
O1912       O  0.79580507  0.63714461  0.35918181    -0.39900
C1913       C  0.06716975  0.91128352  0.37817852    -0.13600
C1914       C  0.09902438  0.90598660  0.37213086     0.16800
C1915       C  0.11382456  0.88067227  0.38718359     0.03100
C1916       C  0.09652376  0.86095180  0.40696983    -0.12100
C1917       C  0.06457386  0.86606047  0.41273141    -0.03200
C1918       C  0.04991907  0.89164867  0.39814068     0.02300
C1919       C  0.11668504  0.92920075  0.35287010     0.09200
N1920       N  0.14627978  0.87435925  0.38240874     0.65500
H1921       H  0.10823636  0.84143298  0.41798264     0.18400
N1922       N  0.01725511  0.89723878  0.40210152     0.76000
H1923       H  0.05564125  0.93117105  0.36770953     0.09900
C1924       C  0.10687906  0.93795159  0.32254633     0.03600
C1925       C  0.11969904  0.96459187  0.30816015    -0.05100
C1926       C  0.14095144  0.98440465  0.32417663    -0.23500
C1927       C  0.15442629  0.97218038  0.35239678     0.12900
C1928       C  0.14170730  0.94542802  0.36650835    -0.12600
N1929       N  0.08368915  0.92016794  0.30606136     0.64600
H1930       H  0.11195117  0.96983578  0.28467572     0.12400
N1931       N  0.17959549  0.98749709  0.36850098     0.61200
H1932       H  0.15020057  0.93863973  0.38945299     0.08600
O1933       O  0.00856607  0.91778756  0.42124630    -0.40300
O1934       O  0.99823220  0.88747806  0.38158607    -0.39400
O1935       O  0.16566150  0.88053860  0.40397506    -0.39400
O1936       O  0.15409423  0.85594148  0.36083611    -0.37100
O1937       O  0.20723089  0.97924495  0.36249419    -0.38000
O1938       O  0.17426509  0.99998360  0.39468411    -0.34200
O1939       O  0.05575751  0.92954159  0.30541118    -0.35600
O1940       O  0.09231951  0.90005946  0.28642476    -0.39900
C1941       C  0.86981447  0.89712712  0.41494088    -0.13600
C1942       C  0.87586320  0.90260326  0.38304689     0.16800
C1943       C  0.90201756  0.88847823  0.36893310     0.03100
C1944       C  0.92148939  0.86949944  0.38692639    -0.12100
C1945       C  0.91625511  0.86547416  0.41897719    -0.03200
C1946       C  0.89019913  0.87930631  0.43310372     0.02300
C1947       C  0.85961229  0.92868544  0.36769509     0.09200
N1948       N  0.91069129  0.89509149  0.33726528     0.65500
H1949       H  0.94150351  0.85869918  0.37610497     0.18400
N1950       N  0.88425483  0.87558142  0.46581862     0.76000
H1951       H  0.85014451  0.90831029  0.42617636     0.09900
C1952       C  0.84370782  0.92629675  0.33891728     0.03600
C1953       C  0.83456658  0.95348369  0.32338614    -0.05100
C1954       C  0.84255295  0.98338209  0.33511367    -0.23500
C1955       C  0.85296581  0.98482331  0.36714198     0.12900
C1956       C  0.86230506  0.95765634  0.38210954    -0.12600
N1957       N  0.83677986  0.89672697  0.32506594     0.64600
H1958       H  0.82382239  0.95115557  0.30046836     0.12400
N1959       N  0.85462593  0.01265941  0.38565425     0.61200
H1960       H  0.87280899  0.95945604  0.40523587     0.08600
O1961       O  0.86312925  0.85689671  0.47465228    -0.40300
O1962       O  0.89496970  0.89547250  0.48487970    -0.39400
O1963       O  0.92555275  0.91992736  0.33131706    -0.39400
O1964       O  0.91103073  0.87317747  0.31757133    -0.37100
O1965       O  0.88104826  0.02071924  0.39627192    -0.38000
O1966       O  0.83097122  0.02019305  0.40141821    -0.34200
O1967       O  0.81313372  0.88164964  0.33448717    -0.35600
O1968       O  0.84834193  0.89015930  0.29873484    -0.39900
C1969       C  0.87231188  0.89240283  0.58714042    -0.13600
C1970       C  0.89025696  0.91725838  0.59890446     0.16800
C1971       C  0.92255861  0.91869362  0.59215957     0.03100
C1972       C  0.93648202  0.89488581  0.57490960    -0.12100
C1973       C  0.91894719  0.86908688  0.56450290    -0.03200
C1974       C  0.88634686  0.86825455  0.57023490     0.02300
C1975       C  0.87611636  0.93884386  0.62182384     0.09200
N1976       N  0.94167774  0.94390656  0.60322159     0.65500
H1977       H  0.96143788  0.89615331  0.57043636     0.18400
N1978       N  0.86707437  0.84323355  0.55914210     0.76000
H1979       H  0.84752736  0.89095134  0.59238471     0.09900
C1980       C  0.85147957  0.95886503  0.61412500     0.03600
C1981       C  0.83979530  0.97922589  0.63673916    -0.05100
C1982       C  0.85113314  0.98003789  0.66804253    -0.23500
C1983       C  0.87651680  0.95916597  0.67524318     0.12900
C1984       C  0.88768894  0.93878538  0.65239048    -0.12600
N1985       N  0.83885354  0.95983349  0.58308774     0.64600
H1986       H  0.82201034  0.99537707  0.62932813     0.12400
N1987       N  0.89338121  0.95900493  0.70432959     0.61200
H1988       H  0.90656856  0.92311744  0.65850358     0.08600
O1989       O  0.84706696  0.84864024  0.53802875    -0.40300
O1990       O  0.86383218  0.81927584  0.57602827    -0.39400
O1991       O  0.95959636  0.93967591  0.62640853    -0.39400
O1992       O  0.94586991  0.96743387  0.58592060    -0.37100
O1993       O  0.89026236  0.93570234  0.72217197    -0.38000
O1994       O  0.91826055  0.97494396  0.70647779    -0.34200
O1995       O  0.81278291  0.94686322  0.57760048    -0.35600
O1996       O  0.84953387  0.97950825  0.56380864    -0.39900
C1997       C  0.10367959  0.90581880  0.57941465    -0.13600
C1998       C  0.09862573  0.90581872  0.61210927     0.16800
C1999       C  0.07707189  0.88381873  0.62454022     0.03100
C2000       C  0.06119892  0.86317567  0.60433318    -0.12100
C2001       C  0.06472146  0.86505613  0.57168336    -0.03200
C2002       C  0.08621390  0.88666916  0.55922033     0.02300
C2003       C  0.11260624  0.93211576  0.63083735     0.09200
N2004       N  0.06916082  0.88329040  0.65704541     0.65500
H2005       H  0.04482308  0.84640526  0.61415688     0.18400
N2006       N  0.09038874  0.88973975  0.52613069     0.76000
H2007       H  0.12033990  0.92204429  0.56919139     0.09900
C2008       C  0.12943938  0.92873850  0.65922931     0.03600
C2009       C  0.14145227  0.95529135  0.67465896    -0.05100
C2010       C  0.13730464  0.98590823  0.66283804    -0.23500
C2011       C  0.12400269  0.98818518  0.63193991     0.12900
C2012       C  0.11027443  0.96201529  0.61798465    -0.12600
N2013       N  0.13549032  0.89877976  0.67250179     0.64600
H2014       H  0.15314723  0.95205341  0.69699300     0.12400
N2015       N  0.12644040  0.01529144  0.61233888     0.61200
H2016       H  0.09860834  0.96512147  0.59559792     0.08600
O2017       O  0.07426082  0.90939472  0.51125576    -0.40300
O2018       O  0.11442602  0.87851354  0.51343361    -0.39400
O2019       O  0.04986896  0.90291693  0.66725676    -0.39400
O2020       O  0.07395256  0.85875367  0.67265780    -0.37100
O2021       O  0.15157968  0.01987053  0.59759878    -0.38000
O2022       O  0.10165746  0.02634275  0.60074079    -0.34200
O2023       O  0.15722705  0.88256472  0.66122126    -0.35600
O2024       O  0.12586686  0.89281890  0.69981991    -0.39900
C2025       C  0.25735195  0.78187850  0.51388701    -0.13600
C2026       C  0.23815765  0.79794969  0.49291079     0.16800
C2027       C  0.25170144  0.82045075  0.47312808     0.03100
C2028       C  0.28400976  0.82616436  0.47434151    -0.12100
C2029       C  0.30378907  0.81158902  0.49659080    -0.03200
C2030       C  0.28960450  0.78800480  0.51599679     0.02300
C2031       C  0.20405484  0.79082278  0.49256204     0.09200
N2032       N  0.23291003  0.83852828  0.45222013     0.65500
H2033       H  0.29323012  0.84146875  0.45661672     0.18400
N2034       N  0.30766216  0.76770179  0.53572049     0.76000
H2035       H  0.24716199  0.76393240  0.52867073     0.09900
C2036       C  0.18909037  0.77637611  0.46681682     0.03600
C2037       C  0.15687398  0.76975010  0.46796198    -0.05100
C2038       C  0.13905384  0.77644712  0.49477024    -0.23500
C2039       C  0.15448833  0.79028110  0.52085557     0.12900
C2040       C  0.18652684  0.79739754  0.51937266    -0.12600
N2041       N  0.20650173  0.76666590  0.44006389     0.64600
H2042       H  0.14590731  0.75866332  0.44788071     0.12400
N2043       N  0.13806239  0.79800957  0.54886932     0.61200
H2044       H  0.19786961  0.80821946  0.53941327     0.08600
O2045       O  0.30602774  0.73859059  0.53162749    -0.40300
O2046       O  0.32258766  0.77816047  0.55904591    -0.39400
O2047       O  0.21964386  0.86258563  0.46253354    -0.39400
O2048       O  0.23650878  0.83556723  0.42304022    -0.37100
O2049       O  0.13911547  0.77963760  0.57195800    -0.38000
O2050       O  0.12933224  0.82569215  0.55308170    -0.34200
O2051       O  0.22071446  0.74100445  0.44106000    -0.35600
O2052       O  0.20106071  0.77907257  0.41379085    -0.39900
C2053       C  0.42536551  0.68971702  0.47458422    -0.13600
C2054       C  0.39268838  0.69160970  0.47571817     0.16800
C2055       C  0.37471600  0.66400928  0.47198182     0.03100
C2056       C  0.38976361  0.63511781  0.46893140    -0.12100
C2057       C  0.42247294  0.63317486  0.47082156    -0.03200
C2058       C  0.44029063  0.66091429  0.47337588     0.02300
C2059       C  0.37832870  0.72249054  0.48207314     0.09200
N2060       N  0.34136867  0.66450356  0.47431147     0.65500
H2061       H  0.37578872  0.61395093  0.46777578     0.18400
N2062       N  0.47332577  0.66017795  0.47841960     0.76000
H2063       H  0.43952057  0.71068968  0.47666238     0.09900
C2064       C  0.38759824  0.74053303  0.50812819     0.03600
C2065       C  0.37522236  0.77025882  0.51269028    -0.05100
C2066       C  0.35374864  0.78367476  0.49134950    -0.23500
C2067       C  0.34395426  0.76461418  0.46536514     0.12900
C2068       C  0.35633005  0.73471449  0.46122026    -0.12600
N2069       N  0.40893349  0.72856369  0.53099352     0.64600
H2070       H  0.38204374  0.78193371  0.53400938     0.12400
N2071       N  0.32027049  0.77437637  0.44363607     0.61200
H2072       H  0.34899711  0.72110825  0.44107364     0.08600
O2073       O  0.48326970  0.66077897  0.50626423    -0.40300
O2074       O  0.49132277  0.66904644  0.45677227    -0.39400
O2075       O  0.32487907  0.65957853  0.45019367    -0.39400
O2076       O  0.32880970  0.66304238  0.50100046    -0.37100
O2077       O  0.32692996  0.79342380  0.42207996    -0.38000
O2078       O  0.29493505  0.75909744  0.44192205    -0.34200
O2079       O  0.43643337  0.73948109  0.53246178    -0.35600
O2080       O  0.39846726  0.71264744  0.55358061    -0.39900
C2081       C  0.24745330  0.19352624  0.47640566    -0.13600
C2082       C  0.23642926  0.21545590  0.49784707     0.16800
C2083       C  0.25680146  0.22656787  0.52117487     0.03100
C2084       C  0.28838543  0.21840440  0.52059747    -0.12100
C2085       C  0.30110676  0.19895510  0.49718351    -0.03200
C2086       C  0.27893449  0.18385400  0.47672983     0.02300
C2087       C  0.20315866  0.22519942  0.49725257     0.09200
N2088       N  0.24589619  0.24694429  0.54523512     0.65500
H2089       H  0.30347444  0.22890361  0.53780509     0.18400
N2090       N  0.28638730  0.15710910  0.45821776     0.76000
H2091       H  0.23108194  0.18276774  0.46015007     0.09900
C2092       C  0.19111911  0.24392845  0.47299632     0.03600
C2093       C  0.16023652  0.25485389  0.47450130    -0.05100
C2094       C  0.14075788  0.24728688  0.49996320    -0.23500
C2095       C  0.15301248  0.22796510  0.52403921     0.12900
C2096       C  0.18381716  0.21722558  0.52239653    -0.12600
N2097       N  0.21028596  0.25262101  0.44704124     0.64600
H2098       H  0.15146232  0.26926763  0.45558578     0.12400
N2099       N  0.13399856  0.21684371  0.54916326     0.61200
H2100       H  0.19271714  0.20240117  0.54095194     0.08600
O2101       O  0.28080284  0.15770898  0.42914945    -0.40300
O2102       O  0.28870888  0.13095220  0.47153621    -0.39400
O2103       O  0.24259429  0.23680849  0.57281681    -0.39400
O2104       O  0.23662423  0.27397861  0.53838963    -0.37100
O2105       O  0.12573376  0.18856776  0.54910686    -0.38000
O2106       O  0.13368458  0.23177590  0.57462269    -0.34200
O2107       O  0.20910229  0.23689070  0.42209911    -0.35600
O2108       O  0.22489731  0.27828622  0.44746627    -0.39900
C2109       C  0.36280315  0.28132725  0.47538975    -0.13600
C2110       C  0.39528947  0.27995378  0.47967806     0.16800
C2111       C  0.40853106  0.25145121  0.48840254     0.03100
C2112       C  0.38915116  0.22545646  0.49351388    -0.12100
C2113       C  0.35597625  0.22658581  0.49164621    -0.03200
C2114       C  0.34305464  0.25546449  0.48066724     0.02300
C2115       C  0.41324691  0.30982169  0.48045398     0.09200
N2116       N  0.44135987  0.24883073  0.49439692     0.65500
H2117       H  0.40038572  0.20425607  0.50052970     0.18400
N2118       N  0.31049238  0.25981772  0.47391332     0.76000
H2119       H  0.35245247  0.30324254  0.46827631     0.09900
C2120       C  0.43538812  0.31909522  0.45764031     0.03600
C2121       C  0.44809376  0.34955759  0.45828222    -0.05100
C2122       C  0.43960351  0.37093249  0.48171220    -0.23500
C2123       C  0.41866382  0.36054018  0.50546708     0.12900
C2124       C  0.40575383  0.33062113  0.50433296    -0.12600
N2125       N  0.44478264  0.29833840  0.43336078     0.64600
H2126       H  0.46418654  0.35663932  0.44000211     0.12400
N2127       N  0.41031495  0.37975779  0.53142065     0.61200
H2128       H  0.38925956  0.32359858  0.52233413     0.08600
O2129       O  0.29603650  0.28124921  0.48786582    -0.40300
O2130       O  0.29911090  0.24921966  0.44873283    -0.39400
O2131       O  0.45171965  0.25474311  0.52149937    -0.39400
O2132       O  0.45797216  0.23321735  0.47584319    -0.37100
O2133       O  0.38441582  0.39373648  0.53095198    -0.38000
O2134       O  0.42449073  0.37635215  0.55718671    -0.34200
O2135       O  0.43170184  0.30014573  0.40686422    -0.35600
O2136       O  0.47106932  0.28525264  0.43551853    -0.39900
C2137       C  0.74381231  0.31115497  0.00427763    -0.13600
C2138       C  0.71676633  0.30031850  0.98895635     0.16800
C2139       C  0.69674854  0.32186606  0.97430270     0.03100
C2140       C  0.70427619  0.35381704  0.97482387    -0.12100
C2141       C  0.73116827  0.36481741  0.99065486    -0.03200
C2142       C  0.75103424  0.34310199  0.00538425     0.02300
C2143       C  0.70878666  0.26664575  0.99026395     0.09200
N2144       N  0.66790071  0.31170878  0.96041264     0.65500
H2145       H  0.68847623  0.37022112  0.96380839     0.18400
N2146       N  0.77906543  0.35303776  0.02086036     0.76000
H2147       H  0.75927739  0.29469123  0.01566638     0.09900
C2148       C  0.71488829  0.24656254  0.96521685     0.03600
C2149       C  0.70730526  0.21492522  0.96773850    -0.05100
C2150       C  0.69435101  0.20153050  0.99532488    -0.23500
C2151       C  0.68877870  0.22250466  0.02092224     0.12900
C2152       C  0.69554656  0.25447157  0.01757473    -0.12600
N2153       N  0.73021331  0.25753431  0.93754146     0.64600
H2154       H  0.71204557  0.20041371  0.94761932     0.12400
N2155       N  0.67788865  0.21278997  0.05108336     0.61200
H2156       H  0.69125874  0.26998055  0.03711102     0.08600
O2157       O  0.80408137  0.35542458  0.00536707    -0.40300
O2158       O  0.78031788  0.35266037  0.05040715    -0.39400
O2159       O  0.64482469  0.30506563  0.97763483    -0.39400
O2160       O  0.66659360  0.30585899  0.93146866    -0.37100
O2161       O  0.65134139  0.22198535  0.05992511    -0.38000
O2162       O  0.69772824  0.20578248  0.07183561    -0.34200
O2163       O  0.75975311  0.25779788  0.93669711    -0.35600
O2164       O  0.71499460  0.25913713  0.91218709    -0.39900
C2165       C  0.81948507  0.09068729  0.95952675    -0.13600
C2166       C  0.81928425  0.12227570  0.96768871     0.16800
C2167       C  0.84819653  0.13787832  0.97238221     0.03100
C2168       C  0.87636693  0.12125995  0.97027716    -0.12100
C2169       C  0.87623256  0.08931108  0.96333838    -0.03200
C2170       C  0.84742741  0.07425277  0.95724050     0.02300
C2171       C  0.78832969  0.13691214  0.97335921     0.09200
N2172       N  0.84939510  0.17032450  0.97972303     0.65500
H2173       H  0.89831259  0.13299498  0.97564801     0.18400
N2174       N  0.84568936  0.04163381  0.95123396     0.76000
H2175       H  0.79757531  0.07807415  0.95662507     0.09900
C2176       C  0.76438031  0.13459734  0.95088960     0.03600
C2177       C  0.73386515  0.14295108  0.95847743    -0.05100
C2178       C  0.72539893  0.15395393  0.98865242    -0.23500
C2179       C  0.75080900  0.15964479  0.00992331     0.12900
C2180       C  0.78133415  0.14988738  0.00258366    -0.12600
N2181       N  0.77091820  0.12483500  0.91957341     0.64600
H2182       H  0.71735324  0.14237484  0.93928345     0.12400
N2183       N  0.74712483  0.17790669  0.03762381     0.61200
H2184       H  0.79971985  0.15263096  0.01994632     0.08600
O2185       O  0.84206832  0.02347601  0.97418753    -0.40300
O2186       O  0.83692670  0.03270322  0.92442645    -0.39400
O2187       O  0.85741573  0.17877469  0.00693124    -0.39400
O2188       O  0.84997575  0.18994894  0.95767767    -0.37100
O2189       O  0.75561167  0.20613925  0.03666468    -0.38000
O2190       O  0.74651257  0.16444698  0.06391098    -0.34200
O2191       O  0.76026009  0.09907385  0.90985863    -0.35600
O2192       O  0.78114470  0.14452445  0.90006638    -0.39900
C2193       C  0.28385703  0.31907396  0.97224202    -0.13600
C2194       C  0.27324257  0.30023068  0.99705507     0.16800
C2195       C  0.25754080  0.31476949  0.02211472     0.03100
C2196       C  0.25300994  0.34722764  0.02199143    -0.12100
C2197       C  0.26236893  0.36599720  0.99654559    -0.03200
C2198       C  0.27839203  0.35138753  0.97160978     0.02300
C2199       C  0.28029997  0.26593866  0.99715005     0.09200
N2200       N  0.24470040  0.29674072  0.04722349     0.65500
H2201       H  0.24157015  0.35765930  0.04186100     0.18400
N2202       N  0.29150248  0.36925072  0.94658194     0.76000
H2203       H  0.29723787  0.30877156  0.95345435     0.09900
C2204       C  0.27266541  0.24667387  0.97155049     0.03600
C2205       C  0.28064233  0.21506225  0.97185604    -0.05100
C2206       C  0.29681448  0.20080905  0.99714887    -0.23500
C2207       C  0.30562350  0.22103998  0.02262729     0.12900
C2208       C  0.29671407  0.25268459  0.02233234    -0.12600
N2209       N  0.25628821  0.25868683  0.94495459     0.64600
H2210       H  0.27363606  0.20116781  0.95180668     0.12400
N2211       N  0.32448717  0.21125254  0.04859943     0.61200
H2212       H  0.30392793  0.26748190  0.04165850     0.08600
O2213       O  0.27868406  0.36842256  0.91989659    -0.40300
O2214       O  0.31918182  0.37945160  0.94918266    -0.39400
O2215       O  0.25636064  0.29908551  0.07434573    -0.39400
O2216       O  0.21815060  0.28404738  0.04379864    -0.37100
O2217       O  0.35386301  0.21138474  0.04565625    -0.38000
O2218       O  0.31327195  0.21288841  0.07588567    -0.34200
O2219       O  0.27076625  0.26257324  0.91949866    -0.35600
O2220       O  0.22674408  0.25850425  0.94485435    -0.39900
C2221       C  0.17439277  0.08379033  0.01585461    -0.13600
C2222       C  0.18961478  0.08769589  0.98717175     0.16800
C2223       C  0.17746727  0.07282348  0.96021142     0.03100
C2224       C  0.14900527  0.05627816  0.96197582    -0.12100
C2225       C  0.13262845  0.05436397  0.99036649    -0.03200
C2226       C  0.14628290  0.06717876  0.01772844     0.02300
C2227       C  0.21805615  0.10752524  0.98651478     0.09200
N2228       N  0.19285517  0.07564696  0.93067770     0.65500
H2229       H  0.13887518  0.04645826  0.94081955     0.18400
N2230       N  0.13168045  0.06377264  0.04763069     0.76000
H2231       H  0.18421457  0.09415118  0.03690973     0.09900
C2232       C  0.21629381  0.13963807  0.99252812     0.03600
C2233       C  0.24362441  0.15755389  0.99518195    -0.05100
C2234       C  0.27373955  0.14428098  0.99235105    -0.23500
C2235       C  0.27496322  0.11105566  0.98837920     0.12900
C2236       C  0.24734964  0.09356130  0.98460293    -0.12600
N2237       N  0.18672218  0.15436618  0.99690093     0.64600
H2238       H  0.24056286  0.18187907  0.00058919     0.12400
N2239       N  0.30389670  0.09436362  0.98844303     0.61200
H2240       H  0.24880656  0.06853985  0.98149570     0.08600
O2241       O  0.11794750  0.08675837  0.05961433    -0.40300
O2242       O  0.13839519  0.04065238  0.06462239    -0.39400
O2243       O  0.20837297  0.05298819  0.92034428    -0.39400
O2244       O  0.18535407  0.09744523  0.91230964    -0.37100
O2245       O  0.31358462  0.08287014  0.96309960    -0.38000
O2246       O  0.31318115  0.08245675  0.01386120    -0.34200
O2247       O  0.17765548  0.16052764  0.02430173    -0.35600
O2248       O  0.17320494  0.16689470  0.97380890    -0.39900
C2249       C  0.79610638  0.80043220  0.46916433    -0.13600
C2250       C  0.78071740  0.79938212  0.49820039     0.16800
C2251       C  0.79722599  0.78794285  0.52446053     0.03100
C2252       C  0.82848973  0.77854370  0.52134280    -0.12100
C2253       C  0.84420477  0.77981865  0.49233657    -0.03200
C2254       C  0.82719107  0.79051490  0.46585543     0.02300
C2255       C  0.74662174  0.80697225  0.49933072     0.09200
N2256       N  0.78226217  0.78399068  0.55412219     0.65500
H2257       H  0.84040579  0.76983830  0.54199100     0.18400
N2258       N  0.84059098  0.79087965  0.43521233     0.76000
H2259       H  0.78358626  0.80849151  0.44857732     0.09900
C2260       C  0.73413562  0.83073741  0.51825002     0.03600
C2261       C  0.70161501  0.83601262  0.51847711    -0.05100
C2262       C  0.68051498  0.81823416  0.49992070    -0.23500
C2263       C  0.69438224  0.79761399  0.47778487     0.12900
C2264       C  0.72641127  0.79116018  0.47892865    -0.12600
N2265       N  0.75422890  0.85171511  0.53500119     0.64600
H2266       H  0.69330813  0.85520599  0.53244984     0.12400
N2267       N  0.67672169  0.78363552  0.45301532     0.61200
H2268       H  0.73576698  0.77408558  0.46284000     0.08600
O2269       O  0.83741831  0.76717630  0.41798723    -0.40300
O2270       O  0.84827392  0.81655569  0.42289454    -0.39400
O2271       O  0.76841658  0.75854991  0.55990837    -0.39400
O2272       O  0.79039393  0.80127976  0.57667512    -0.37100
O2273       O  0.67046384  0.75487362  0.45449674    -0.38000
O2274       O  0.67750139  0.79655676  0.42642054    -0.34200
O2275       O  0.76767142  0.87342705  0.52013105    -0.35600
O2276       O  0.75174238  0.85384115  0.56437707    -0.39900
C2277       C  0.57802467  0.76078125  0.51733667    -0.13600
C2278       C  0.59556228  0.73364759  0.52058444     0.16800
C2279       C  0.62824786  0.73590057  0.52149635     0.03100
C2280       C  0.64297057  0.76447393  0.51614135    -0.12100
C2281       C  0.62603724  0.79188032  0.50893085    -0.03200
C2282       C  0.59268581  0.78989489  0.51301598     0.02300
C2283       C  0.57995990  0.70280094  0.51977146     0.09200
N2284       N  0.64697258  0.70926380  0.52834652     0.65500
H2285       H  0.66806702  0.76462554  0.51885520     0.18400
N2286       N  0.57359363  0.81685813  0.51709475     0.76000
H2287       H  0.55269461  0.75944228  0.51843356     0.09900
C2288       C  0.56055721  0.69174617  0.54402847     0.03600
C2289       C  0.54644578  0.66204906  0.54159354    -0.05100
C2290       C  0.55182424  0.64297360  0.51529883    -0.23500
C2291       C  0.57085235  0.65496953  0.49072822     0.12900
C2292       C  0.58454490  0.68442593  0.49330609    -0.12600
N2293       N  0.55596710  0.70999421  0.57159559     0.64600
H2294       H  0.53179687  0.65369574  0.56052196     0.12400
N2295       N  0.57599467  0.63805643  0.46238589     0.61200
H2296       H  0.59890216  0.69315657  0.47424900     0.08600
O2297       O  0.55572349  0.82562376  0.49525691    -0.40300
O2298       O  0.56691620  0.82469225  0.54473876    -0.39400
O2299       O  0.66112608  0.69571930  0.50639609    -0.39400
O2300       O  0.65487808  0.70388013  0.55635344    -0.37100
O2301       O  0.55981606  0.64444074  0.43846158    -0.38000
O2302       O  0.60120141  0.62327339  0.45909152    -0.34200
O2303       O  0.53161671  0.72623393  0.57423893    -0.35600
O2304       O  0.57807564  0.71336999  0.59104507    -0.39900
C2305       C  0.70687411  0.70318043  0.02447303    -0.13600
C2306       C  0.71136561  0.72082463  0.99716586     0.16800
C2307       C  0.72532227  0.70656908  0.97098402     0.03100
C2308       C  0.73395565  0.67510216  0.97244515    -0.12100
C2309       C  0.72927486  0.65717183  0.99973130    -0.03200
C2310       C  0.71579838  0.67187221  0.02615203     0.02300
C2311       C  0.70309539  0.75445501  0.99766944     0.09200
N2312       N  0.73226806  0.72394923  0.94323598     0.65500
H2313       H  0.74460541  0.66473213  0.95198620     0.18400
N2314       N  0.71072793  0.65555441  0.05492832     0.76000
H2315       H  0.69642994  0.71391968  0.04486411     0.09900
C2316       C  0.67999237  0.76718987  0.97797281     0.03600
C2317       C  0.67284343  0.79896140  0.97995076    -0.05100
C2318       C  0.68815472  0.81924388  0.00141951    -0.23500
C2319       C  0.70922121  0.80510206  0.02324823     0.12900
C2320       C  0.71700212  0.77356325  0.02040495    -0.12600
N2321       N  0.66151789  0.74779760  0.95776287     0.64600
H2322       H  0.65361469  0.80689773  0.96561809     0.12400
N2323       N  0.72228299  0.82181926  0.04927568     0.61200
H2324       H  0.73374933  0.76368603  0.03672131     0.08600
O2325       O  0.68366103  0.64543321  0.06125590    -0.40300
O2326       O  0.73075477  0.65801952  0.07663188    -0.39400
O2327       O  0.75684913  0.74043926  0.94243443    -0.39400
O2328       O  0.71891351  0.71662817  0.91782450    -0.37100
O2329       O  0.75089817  0.82936395  0.04882346    -0.38000
O2330       O  0.70894173  0.81931702  0.07550834    -0.34200
O2331       O  0.63849167  0.73308960  0.96911548    -0.35600
O2332       O  0.66266398  0.75213646  0.92853081    -0.39900
C2333       C  0.76684738  0.88523586  0.99469211    -0.13600
C2334       C  0.76316262  0.91666053  0.00280965     0.16800
C2335       C  0.73279832  0.92856400  0.00506186     0.03100
C2336       C  0.70714345  0.90841027  0.00194858    -0.12100
C2337       C  0.71044515  0.87579027  0.99816647    -0.03200
C2338       C  0.74108118  0.86523210  0.99041252     0.02300
C2339       C  0.79149165  0.93680837  0.00357085     0.09200
N2340       N  0.72735928  0.96112533  0.00920255     0.65500
H2341       H  0.68434124  0.91840102  0.00408289     0.18400
N2342       N  0.74662271  0.83673742  0.97390106     0.76000
H2343       H  0.79008535  0.87654876  0.98973882     0.09900
C2344       C  0.80263211  0.95172711  0.03101256     0.03600
C2345       C  0.83279641  0.96515206  0.03136239    -0.05100
C2346       C  0.85224110  0.96320119  0.00499265    -0.23500
C2347       C  0.83998938  0.95011684  0.97701917     0.12900
C2348       C  0.80983719  0.93760605  0.97653496    -0.12600
N2349       N  0.78474434  0.95159751  0.05923391     0.64600
H2350       H  0.84169511  0.97541504  0.05284933     0.12400
N2351       N  0.85794435  0.94885403  0.94883208     0.61200
H2352       H  0.80125020  0.92684582  0.95514380     0.08600
O2353       O  0.76570690  0.81743913  0.98530810    -0.40300
O2354       O  0.74241082  0.83653347  0.94462585    -0.39400
O2355       O  0.72597368  0.97843486  0.98531252    -0.39400
O2356       O  0.71544106  0.97044612  0.03449965    -0.37100
O2357       O  0.87283389  0.92434813  0.94262338    -0.38000
O2358       O  0.85175761  0.96760866  0.92692381    -0.34200
O2359       O  0.78780460  0.92925181  0.07822840    -0.35600
O2360       O  0.77315325  0.97680456  0.06880231    -0.39900
C2361       C  0.24619237  0.71444012  0.01105330    -0.13600
C2362       C  0.27210172  0.72473136  0.99391410     0.16800
C2363       C  0.29147144  0.70278382  0.97936863     0.03100
C2364       C  0.28409466  0.67087785  0.98142923    -0.12100
C2365       C  0.25819383  0.66033396  0.99900282    -0.03200
C2366       C  0.23947032  0.68256473  0.01416847     0.02300
C2367       C  0.28030758  0.75824004  0.99430597     0.09200
N2368       N  0.31948060  0.71259894  0.96387215     0.65500
H2369       H  0.29918854  0.65417940  0.97004143     0.18400
N2370       N  0.21502126  0.67334820  0.03477901     0.76000
H2371       H  0.23174969  0.73125467  0.02310410     0.09900
C2372       C  0.26744835  0.77904659  0.97265403     0.03600
C2373       C  0.27425609  0.81078474  0.97508143    -0.05100
C2374       C  0.29313870  0.82350578  0.99939181    -0.23500
C2375       C  0.30504554  0.80179339  0.02210467     0.12900
C2376       C  0.29929501  0.76971736  0.01843416    -0.12600
N2377       N  0.24609052  0.76856798  0.94896147     0.64600
H2378       H  0.26375660  0.82592129  0.95802424     0.12400
N2379       N  0.31981405  0.81101841  0.05084484     0.61200
H2380       H  0.30817302  0.75363603  0.03590778     0.08600
O2381       O  0.21862879  0.67892598  0.06355925    -0.40300
O2382       O  0.18774272  0.66921431  0.02400448    -0.39400
O2383       O  0.34476555  0.71425283  0.97921476    -0.39400
O2384       O  0.31780953  0.72521786  0.93719506    -0.37100
O2385       O  0.30277128  0.81785255  0.07389002    -0.38000
O2386       O  0.34750178  0.80235058  0.05620927    -0.34200
O2387       O  0.21706280  0.76890170  0.95439895    -0.35600
O2388       O  0.25542592  0.76606848  0.92106658    -0.39900
C2389       C  0.21063497  0.89720845  0.99513641    -0.13600
C2390       C  0.19781743  0.88724852  0.02362011     0.16800
C2391       C  0.21404552  0.86554272  0.04176181     0.03100
C2392       C  0.24380286  0.85616002  0.03257375    -0.12100
C2393       C  0.25922547  0.86904854  0.00606052    -0.03200
C2394       C  0.24028900  0.88727256  0.98526308     0.02300
C2395       C  0.16579974  0.89694622  0.03174563     0.09200
N2396       N  0.20068934  0.85282062  0.06967934     0.65500
H2397       H  0.25583930  0.83989921  0.04760398     0.18400
N2398       N  0.24797395  0.89239121  0.95293397     0.76000
H2399       H  0.19667887  0.91158113  0.97960962     0.09900
C2400       C  0.16026293  0.92422984  0.04911242     0.03600
C2401       C  0.12991061  0.93629489  0.05066912    -0.05100
C2402       C  0.10512754  0.92180263  0.03458303    -0.23500
C2403       C  0.11039251  0.89327393  0.01914270     0.12900
C2404       C  0.14056816  0.88090340  0.01817497    -0.12600
N2405       N  0.18559082  0.94143647  0.06277215     0.64600
H2406       H  0.12627507  0.95854042  0.06206930     0.12400
N2407       N  0.08571542  0.87729843  0.00305458     0.61200
H2408       H  0.14468977  0.85979850  0.00491747     0.08600
O2409       O  0.24884534  0.91992349  0.94251648    -0.40300
O2410       O  0.24274748  0.87068072  0.93366737    -0.39400
O2411       O  0.18792037  0.82621400  0.06880490    -0.39400
O2412       O  0.20782234  0.86462612  0.09584197    -0.37100
O2413       O  0.08028751  0.88384175  0.97471690    -0.38000
O2414       O  0.07608446  0.85162202  0.01391883    -0.34200
O2415       O  0.19599441  0.96534949  0.04892489    -0.35600
O2416       O  0.19272754  0.93685379  0.09111753    -0.39900
C2417       C  0.30141252  0.98659144  0.28601953    -0.13600
C2418       C  0.28353421  0.01218364  0.27651341     0.16800
C2419       C  0.29822184  0.03623610  0.25933181     0.03100
C2420       C  0.33028932  0.03449797  0.25224049    -0.12100
C2421       C  0.34850551  0.00901472  0.26197870    -0.03200
C2422       C  0.33349573  0.98481987  0.27917009     0.02300
C2423       C  0.25005450  0.01391646  0.28619747     0.09200
N2424       N  0.28071900  0.06231045  0.24833206     0.65500
H2425       H  0.34095837  0.05329416  0.23896021     0.18400
N2426       N  0.35073545  0.95934478  0.29192401     0.76000
H2427       H  0.29055980  0.96822740  0.29977893     0.09900
C2428       C  0.22782480  0.99221563  0.27537645     0.03600
C2429       C  0.19694223  0.99333560  0.28607196    -0.05100
C2430       C  0.18626653  0.01668351  0.30696059    -0.23500
C2431       C  0.20979155  0.03739646  0.31952284     0.12900
C2432       C  0.24086761  0.03587796  0.30851532    -0.12600
N2433       N  0.23578028  0.96992407  0.25195059     0.64600
H2434       H  0.18034188  0.97687876  0.27605089     0.12400
N2435       N  0.20405840  0.05912353  0.34423328     0.61200
H2436       H  0.25833887  0.05166162  0.31817176     0.08600
O2437       O  0.34892073  0.93300206  0.27889980    -0.40300
O2438       O  0.36084196  0.96118545  0.31968959    -0.39400
O2439       O  0.28493289  0.08867778  0.26077659    -0.39400
O2440       O  0.26627410  0.06038485  0.22254219    -0.37100
O2441       O  0.20562481  0.04971280  0.37219152    -0.38000
O2442       O  0.20887005  0.08772779  0.33900610    -0.34200
O2443       O  0.23771828  0.94149599  0.25924710    -0.35600
O2444       O  0.23420571  0.97756484  0.22341852    -0.39900
C2445       C  0.69620946  0.02803587  0.24967914    -0.13600
C2446       C  0.70590963  0.00885927  0.27452855     0.16800
C2447       C  0.68347341  0.99064317  0.29052886     0.03100
C2448       C  0.65207332  0.99185049  0.28148834    -0.12100
C2449       C  0.64224246  0.01115035  0.25681378    -0.03200
C2450       C  0.66461358  0.02937936  0.24075424     0.02300
C2451       C  0.73930496  0.00904783  0.28402493     0.09200
N2452       N  0.69217554  0.97047536  0.31574096     0.65500
H2453       H  0.63510447  0.97791701  0.29429975     0.18400
N2454       N  0.65587450  0.04876686  0.21500539     0.76000
H2455       H  0.71324411  0.04228096  0.23734583     0.09900
C2456       C  0.76288157  0.00066609  0.26306534     0.03600
C2457       C  0.79422061  0.00218655  0.27235833    -0.05100
C2458       C  0.80379874  0.01218262  0.30277532    -0.23500
C2459       C  0.77893916  0.01752573  0.32452916     0.12900
C2460       C  0.74762458  0.01747780  0.31449970    -0.12600
N2461       N  0.75531547  0.98841676  0.23280810     0.64600
H2462       H  0.81070989  0.99362825  0.25538552     0.12400
N2463       N  0.78395305  0.01956268  0.35750059     0.61200
H2464       H  0.72943628  0.02289296  0.33123538     0.08600
O2465       O  0.65601929  0.07794015  0.21857897    -0.40300
O2466       O  0.65613976  0.03765247  0.18764029    -0.39400
O2467       O  0.68510130  0.97780906  0.34344587    -0.39400
O2468       O  0.69958491  0.94269911  0.30980992    -0.37100
O2469       O  0.77854250  0.04515920  0.37093234    -0.38000
O2470       O  0.78069974  0.99479674  0.37321325    -0.34200
O2471       O  0.76168949  0.00419404  0.20865108    -0.35600
O2472       O  0.74892822  0.95977936  0.23007537    -0.39900
C2473       C  0.35608776  0.89034977  0.44273796    -0.13600
C2474       C  0.37957308  0.87940778  0.42305915     0.16800
C2475       C  0.39081938  0.84911786  0.42744584     0.03100
C2476       C  0.37702943  0.82963561  0.44973231    -0.12100
C2477       C  0.35215186  0.83945353  0.46940580    -0.03200
C2478       C  0.34333062  0.87154874  0.46648958     0.02300
C2479       C  0.39364931  0.90048745  0.39940970     0.09200
N2480       N  0.41846322  0.83879525  0.41184906     0.65500
H2481       H  0.38792310  0.80719155  0.45249641     0.18400
N2482       N  0.32320809  0.88654985  0.48841487     0.76000
H2483       H  0.34844309  0.91429249  0.44050726     0.09900
C2484       C  0.39277933  0.89313191  0.36731154     0.03600
C2485       C  0.40873654  0.91195273  0.34592453    -0.05100
C2486       C  0.42497558  0.93904924  0.35546933    -0.23500
C2487       C  0.42429974  0.94730828  0.38760925     0.12900
C2488       C  0.40902083  0.92780409  0.40920679    -0.12600
N2489       N  0.37464184  0.86741155  0.35579041     0.64600
H2490       H  0.40792035  0.90525377  0.32146323     0.12400
N2491       N  0.43837379  0.97549592  0.39880498     0.61200
H2492       H  0.40936768  0.93390232  0.43385305     0.08600
O2493       O  0.29652819  0.89521776  0.47918273    -0.40300
O2494       O  0.33584522  0.90123748  0.51078951    -0.39400
O2495       O  0.44481358  0.84825265  0.42158957    -0.39400
O2496       O  0.41712270  0.81492593  0.39464018    -0.37100
O2497       O  0.42158466  0.99931072  0.40227083    -0.38000
O2498       O  0.46465090  0.97437347  0.41232935    -0.34200
O2499       O  0.34553598  0.87074748  0.35199605    -0.35600
O2500       O  0.38823598  0.84541285  0.34189445    -0.39900
C2501       C  0.58811242  0.92608794  0.40623078    -0.13600
C2502       C  0.60344566  0.89944056  0.39526110     0.16800
C2503       C  0.60293520  0.89291424  0.36300077     0.03100
C2504       C  0.58672896  0.91248472  0.34249754    -0.12100
C2505       C  0.57042052  0.93888511  0.35326838    -0.03200
C2506       C  0.57169238  0.94577455  0.38569478     0.02300
C2507       C  0.61729760  0.87740617  0.41818215     0.09200
N2508       N  0.61874660  0.86643982  0.35058980     0.65500
H2509       H  0.58656833  0.90634367  0.31787989     0.18400
N2510       N  0.55602715  0.97211070  0.39845432     0.76000
H2511       H  0.58806909  0.93113950  0.43111350     0.09900
C2512       C  0.64226954  0.88618599  0.43773833     0.03600
C2513       C  0.65169455  0.86638790  0.46188234    -0.05100
C2514       C  0.63591591  0.83786788  0.46860224    -0.23500
C2515       C  0.61323846  0.82741412  0.44594464     0.12900
C2516       C  0.60389493  0.84773156  0.42179551    -0.12600
N2517       N  0.65752067  0.91577161  0.43435867     0.64600
H2518       H  0.66979624  0.87498789  0.47754363     0.12400
N2519       N  0.60063668  0.79633677  0.44491166     0.61200
H2520       H  0.58548312  0.84033206  0.40585149     0.08600
O2521       O  0.57117386  0.99710364  0.40284700    -0.40300
O2522       O  0.53033012  0.96801418  0.41238670    -0.39400
O2523       O  0.60332821  0.84187982  0.34485844    -0.39400
O2524       O  0.64538701  0.87010865  0.33837215    -0.37100
O2525       O  0.61564953  0.77605457  0.42998385    -0.38000
O2526       O  0.57133467  0.79275950  0.44649411    -0.34200
O2527       O  0.64998712  0.93784019  0.45226804    -0.35600
O2528       O  0.68315729  0.91734033  0.41981339    -0.39900
C2529       C  0.37591681  0.11168511  0.36900758    -0.13600
C2530       C  0.39384362  0.12966325  0.38993838     0.16800
C2531       C  0.42687782  0.12822475  0.38865383     0.03100
C2532       C  0.44130887  0.10863788  0.36706186    -0.12100
C2533       C  0.42342531  0.09026398  0.34659191    -0.03200
C2534       C  0.39043593  0.09184175  0.34750502     0.02300
C2535       C  0.37812391  0.14537081  0.41634863     0.09200
N2536       N  0.44610426  0.14624723  0.40942840     0.65500
H2537       H  0.46667168  0.10788396  0.36618532     0.18400
N2538       N  0.37146458  0.07158068  0.32864902     0.76000
H2539       H  0.35059276  0.11167088  0.37062684     0.09900
C2540       C  0.35726596  0.17012438  0.41245575     0.03600
C2541       C  0.34419003  0.18440443  0.43884586    -0.05100
C2542       C  0.35037625  0.17422877  0.46992361    -0.23500
C2543       C  0.37212420  0.14899767  0.47290800     0.12900
C2544       C  0.38448985  0.13471249  0.44639424    -0.12600
N2545       N  0.34983063  0.18171700  0.38196235     0.64600
H2546       H  0.32906060  0.20397111  0.43487219     0.12400
N2547       N  0.38464367  0.13826706  0.50187822     0.61200
H2548       H  0.40046947  0.11540898  0.44949874     0.08600
O2549       O  0.35363060  0.08294989  0.30802057    -0.40300
O2550       O  0.36796972  0.04345249  0.33670969    -0.39400
O2551       O  0.45863159  0.13316245  0.43277987    -0.39400
O2552       O  0.45648517  0.17235538  0.40040768    -0.37100
O2553       O  0.37931404  0.11026125  0.50924358    -0.38000
O2554       O  0.40924371  0.15111702  0.51220574    -0.34200
O2555       O  0.32421592  0.17395495  0.36923735    -0.35600
O2556       O  0.36532556  0.20432996  0.37093412    -0.39900
C2557       C  0.52298884  0.27413181  0.21961019    -0.13600
C2558       C  0.49646222  0.25642278  0.21190814     0.16800
C2559       C  0.47142675  0.27094839  0.19665887     0.03100
C2560       C  0.47287801  0.30277879  0.18978455    -0.12100
C2561       C  0.49880286  0.32183325  0.19853031    -0.03200
C2562       C  0.52474141  0.30622235  0.21300920     0.02300
C2563       C  0.49575099  0.22247723  0.21873385     0.09200
N2564       N  0.44448728  0.25341898  0.18707875     0.65500
H2565       H  0.45293903  0.31199365  0.17742065     0.18400
N2566       N  0.55357513  0.32179338  0.22048841     0.76000
H2567       H  0.54278744  0.26282676  0.23067062     0.09900
C2568       C  0.51375255  0.20158699  0.20106909     0.03600
C2569       C  0.51303778  0.16964968  0.20821218    -0.05100
C2570       C  0.49499015  0.15793899  0.23311479    -0.23500
C2571       C  0.47720523  0.17902261  0.25101759     0.12900
C2572       C  0.47754049  0.21097696  0.24356022    -0.12600
N2573       N  0.53268941  0.21258035  0.17571317     0.64600
H2574       H  0.52598789  0.15365632  0.19377685     0.12400
N2575       N  0.46032541  0.16872095  0.27798641     0.61200
H2576       H  0.46407477  0.22700349  0.25764359     0.08600
O2577       O  0.57575692  0.32022285  0.20110030    -0.40300
O2578       O  0.56040431  0.32606068  0.24895464    -0.39400
O2579       O  0.42019971  0.25380860  0.20381247    -0.39400
O2580       O  0.44262688  0.24370690  0.15922975    -0.37100
O2581       O  0.47358505  0.16956726  0.30446263    -0.38000
O2582       O  0.43092471  0.16592221  0.27651348    -0.34200
O2583       O  0.56169709  0.21673881  0.17985243    -0.35600
O2584       O  0.51991391  0.22238398  0.15090361    -0.39900
C2585       C  0.47910237  0.75092591  0.21883118    -0.13600
C2586       C  0.50134311  0.76965215  0.20389661     0.16800
C2587       C  0.52125866  0.75592213  0.18176959     0.03100
C2588       C  0.51951658  0.72359714  0.17609967    -0.12100
C2589       C  0.49928517  0.70361785  0.19342194    -0.03200
C2590       C  0.47765684  0.71863767  0.21390461     0.02300
C2591       C  0.50281122  0.80331766  0.21234829     0.09200
N2592       N  0.54299837  0.77452848  0.16438229     0.65500
H2593       H  0.53370031  0.71475195  0.15730831     0.18400
N2594       N  0.45419300  0.70159892  0.23066942     0.76000
H2595       H  0.46301951  0.76142388  0.23526705     0.09900
C2596       C  0.48044254  0.82426171  0.20057883     0.03600
C2597       C  0.47826669  0.85438420  0.21303840    -0.05100
C2598       C  0.49869330  0.86477641  0.23681444    -0.23500
C2599       C  0.52176653  0.84397573  0.24817458     0.12900
C2600       C  0.52341102  0.81347527  0.23605801    -0.12600
N2601       N  0.46036920  0.81553225  0.17518445     0.64600
H2602       H  0.46125443  0.87021294  0.20303751     0.12400
N2603       N  0.54255996  0.85282375  0.27305208     0.61200
H2604       H  0.54025320  0.79734618  0.24583632     0.08600
O2605       O  0.42599761  0.70422354  0.22213856    -0.40300
O2606       O  0.45992922  0.69283700  0.25833235    -0.39400
O2607       O  0.57171217  0.77382532  0.17142849    -0.39400
O2608       O  0.53470921  0.78597456  0.13841333    -0.37100
O2609       O  0.53393961  0.84915102  0.30107408    -0.38000
O2610       O  0.57120387  0.85740243  0.26735903    -0.34200
O2611       O  0.43210616  0.80866196  0.18048754    -0.35600
O2612       O  0.46902754  0.82083260  0.14742754    -0.39900
C2613       C  0.66389162  0.10655297  0.06140766    -0.13600
C2614       C  0.63389712  0.11802093  0.06739900     0.16800
C2615       C  0.62432138  0.14516544  0.05206389     0.03100
C2616       C  0.64439243  0.16013855  0.03111166    -0.12100
C2617       C  0.67506224  0.14977366  0.02456024    -0.03200
C2618       C  0.68439758  0.12139556  0.04004205     0.02300
C2619       C  0.61368343  0.10318012  0.09160592     0.09200
N2620       N  0.59355675  0.15724335  0.05647462     0.65500
H2621       H  0.63530580  0.18006750  0.01893431     0.18400
N2622       N  0.71306272  0.10549816  0.03350693     0.76000
H2623       H  0.67135669  0.08542500  0.07312182     0.09900
C2624       C  0.59738995  0.07492959  0.08656129     0.03600
C2625       C  0.57852712  0.06218833  0.11045284    -0.05100
C2626       C  0.57553179  0.07706352  0.13975882    -0.23500
C2627       C  0.59205475  0.10562988  0.14439939     0.12900
C2628       C  0.61057184  0.11822289  0.12039733    -0.12600
N2629       N  0.59922813  0.05925740  0.05711804     0.64600
H2630       H  0.56632285  0.04039231  0.10601780     0.12400
N2631       N  0.58992926  0.12295491  0.17287366     0.61200
H2632       H  0.62290717  0.14005575  0.12439586     0.08600
O2633       O  0.73393178  0.10509937  0.05449751    -0.40300
O2634       O  0.71242667  0.08313728  0.01434456    -0.39400
O2635       O  0.58973359  0.18029405  0.07434820    -0.39400
O2636       O  0.57207615  0.14971730  0.03748449    -0.37100
O2637       O  0.57897283  0.15013937  0.17176542    -0.38000
O2638       O  0.60749004  0.11575811  0.19554576    -0.34200
O2639       O  0.61539696  0.03488340  0.05483765    -0.35600
O2640       O  0.58015040  0.06606696  0.03555452    -0.39900
C2641       C  0.59807483  0.88390027  0.13510424    -0.13600
C2642       C  0.61097061  0.89960090  0.10937389     0.16800
C2643       C  0.60182464  0.93069193  0.10329322     0.03100
C2644       C  0.58124913  0.94567263  0.12347276    -0.12100
C2645       C  0.56927635  0.93045532  0.14975636    -0.03200
C2646       C  0.57734854  0.89901815  0.15527566     0.02300
C2647       C  0.63186657  0.88257063  0.08787382     0.09200
N2648       N  0.61158722  0.94715822  0.07592329     0.65500
H2649       H  0.57513359  0.96973514  0.11882608     0.18400
N2650       N  0.56362678  0.88165699  0.18029853     0.76000
H2651       H  0.60399689  0.85974583  0.13944920     0.09900
C2652       C  0.66328372  0.89141494  0.08388729     0.03600
C2653       C  0.67998835  0.87987645  0.05840984    -0.05100
C2654       C  0.66569288  0.86000786  0.03588192    -0.23500
C2655       C  0.63714193  0.84526715  0.04520560     0.12900
C2656       C  0.62004410  0.85747791  0.07037423    -0.12600
N2657       N  0.67897489  0.91091239  0.10621751     0.64600
H2658       H  0.70425805  0.88687498  0.05660639     0.12400
N2659       N  0.62446881  0.81898366  0.02882562     0.61200
H2660       H  0.59682102  0.84834905  0.07521268     0.08600
O2661       O  0.57972810  0.87631538  0.20452545    -0.40300
O2662       O  0.53993634  0.86483064  0.17459534    -0.39400
O2663       O  0.59152777  0.95178066  0.05464935    -0.39400
O2664       O  0.63456357  0.96569323  0.07804082    -0.37100
O2665       O  0.63123283  0.79200139  0.03840792    -0.38000
O2666       O  0.60076647  0.82238812  0.01144704    -0.34200
O2667       O  0.69067941  0.89851526  0.13036219    -0.35600
O2668       O  0.68847565  0.93759564  0.09799565    -0.39900
C2669       C  0.36642934  0.93938948  0.11655592    -0.13600
C2670       C  0.37423056  0.90986314  0.10459188     0.16800
C2671       C  0.40224203  0.89572808  0.11530481     0.03100
C2672       C  0.42191740  0.91159752  0.13638280    -0.12100
C2673       C  0.41329129  0.94043316  0.14872508    -0.03200
C2674       C  0.38466449  0.95377010  0.13974544     0.02300
C2675       C  0.35378772  0.89523078  0.07997920     0.09200
N2676       N  0.41045009  0.86480358  0.10619057     0.65500
H2677       H  0.44347798  0.90077775  0.14412393     0.18400
N2678       N  0.37271843  0.98054115  0.15556239     0.76000
H2679       H  0.34587175  0.95143082  0.10824193     0.09900
C2680       C  0.32087778  0.89725015  0.08095244     0.03600
C2681       C  0.30287991  0.88768554  0.05532561    -0.05100
C2682       C  0.31579155  0.87182499  0.02931371    -0.23500
C2683       C  0.34925970  0.86944854  0.02885653     0.12900
C2684       C  0.36740910  0.88186652  0.05339996    -0.12600
N2685       N  0.30487524  0.90829783  0.10811806     0.64600
H2686       H  0.27855818  0.89367202  0.05661536     0.12400
N2687       N  0.36579898  0.85685326  0.00270670     0.61200
H2688       H  0.39262657  0.88166892  0.05104491     0.08600
O2689       O  0.37065335  0.00615954  0.14120856    -0.40300
O2690       O  0.35741779  0.97666471  0.18053278    -0.39400
O2691       O  0.43554458  0.86030672  0.09138802    -0.39400
O2692       O  0.39628560  0.84189114  0.11832776    -0.37100
O2693       O  0.38149466  0.87520163  0.98563155    -0.38000
O2694       O  0.37248196  0.82827462  0.00249697    -0.34200
O2695       O  0.28885701  0.93284544  0.10621935    -0.35600
O2696       O  0.29989056  0.88965045  0.13047393    -0.39900
C2697       C  0.39351576  0.07850101  0.08791960    -0.13600
C2698       C  0.38078880  0.10785913  0.09456557     0.16800
C2699       C  0.38748258  0.12176203  0.12371044     0.03100
C2700       C  0.40591426  0.10600253  0.14578672    -0.12100
C2701       C  0.41924511  0.07685437  0.13904895    -0.03200
C2702       C  0.41353866  0.06348449  0.10916867     0.02300
C2703       C  0.36216333  0.12418280  0.06997748     0.09200
N2704       N  0.37741892  0.15268910  0.13049497     0.65500
H2705       H  0.41061210  0.11721375  0.16807933     0.18400
N2706       N  0.42865888  0.03548261  0.09935113     0.76000
H2707       H  0.38878896  0.06763988  0.06546090     0.09900
C2708       C  0.37451421  0.12882674  0.03993465     0.03600
C2709       C  0.35570892  0.14084773  0.01599818    -0.05100
C2710       C  0.32461276  0.15124893  0.02104217    -0.23500
C2711       C  0.31188538  0.14481528  0.05157695     0.12900
C2712       C  0.33085060  0.13190120  0.07534076    -0.12600
N2713       N  0.40632845  0.12096205  0.03315563     0.64600
H2714       H  0.36625829  0.14065571  0.99329329     0.12400
N2715       N  0.27906001  0.14741480  0.05809788     0.61200
H2716       H  0.32055707  0.12666630  0.09793661     0.08600
O2717       O  0.41227578  0.01201510  0.09190746    -0.40300
O2718       O  0.45661681  0.03708749  0.08995808    -0.39400
O2719       O  0.35363083  0.15669323  0.14741542    -0.39400
O2720       O  0.39582949  0.17529170  0.12549938    -0.37100
O2721       O  0.26601280  0.17365442  0.05905262    -0.38000
O2722       O  0.26365063  0.12342549  0.06594439    -0.34200
O2723       O  0.41230422  0.10057152  0.01278922    -0.35600
O2724       O  0.42850490  0.13426997  0.04765537    -0.39900
C2725       C  0.79565178  0.24798334  0.48555076    -0.13600
C2726       C  0.78734492  0.22397921  0.50644105     0.16800
C2727       C  0.81066590  0.21002571  0.52500341     0.03100
C2728       C  0.84166098  0.22040095  0.52257821    -0.12100
C2729       C  0.85012155  0.24418561  0.50146978    -0.03200
C2730       C  0.82681064  0.25807046  0.48279943     0.02300
C2731       C  0.75439096  0.21321773  0.50704230     0.09200
N2732       N  0.80366143  0.18428705  0.54515554     0.65500
H2733       H  0.85945602  0.20908234  0.53667587     0.18400
N2734       N  0.83414847  0.28306949  0.46185764     0.76000
H2735       H  0.77778232  0.25886301  0.47121507     0.09900
C2736       C  0.73422003  0.22065941  0.53170423     0.03600
C2737       C  0.70213910  0.21483590  0.52864676    -0.05100
C2738       C  0.68872722  0.20131812  0.50131409    -0.23500
C2739       C  0.71012301  0.19236769  0.47703042     0.12900
C2740       C  0.74227626  0.19833462  0.48055430    -0.12600
N2741       N  0.74556101  0.23573134  0.55939160     0.64600
H2742       H  0.68718119  0.22182383  0.54780265     0.12400
N2743       N  0.70062411  0.17943835  0.44759876     0.61200
H2744       H  0.75792087  0.19268435  0.46145373     0.08600
O2745       O  0.83041264  0.31081515  0.47075753    -0.40300
O2746       O  0.83758414  0.27749654  0.43305608    -0.39400
O2747       O  0.80489103  0.15700305  0.53425269    -0.39400
O2748       O  0.80483022  0.18810628  0.57445305    -0.37100
O2749       O  0.70914468  0.15213292  0.44091810    -0.38000
O2750       O  0.69326863  0.19758147  0.42552246    -0.34200
O2751       O  0.74600864  0.26511538  0.56050146    -0.35600
O2752       O  0.74695959  0.22042173  0.58462623    -0.39900
C2753       C  0.60727043  0.17631053  0.42227607    -0.13600
C2754       C  0.61387685  0.14447566  0.42169419     0.16800
C2755       C  0.63293211  0.13181027  0.44508588     0.03100
C2756       C  0.64543166  0.15112320  0.46828641    -0.12100
C2757       C  0.63890210  0.18354425  0.47010231    -0.03200
C2758       C  0.61857257  0.19595126  0.44628838     0.02300
C2759       C  0.59930308  0.12464228  0.39725954     0.09200
N2760       N  0.63854927  0.09903621  0.44665318     0.65500
H2761       H  0.66035699  0.14031922  0.48570132     0.18400
N2762       N  0.60673933  0.22711753  0.44642069     0.76000
H2763       H  0.59173791  0.18577933  0.40455984     0.09900
C2764       C  0.56842707  0.11362370  0.40066253     0.03600
C2765       C  0.55439265  0.09625330  0.37669617    -0.05100
C2766       C  0.57047680  0.08972613  0.34880070    -0.23500
C2767       C  0.60171296  0.10051663  0.34553581     0.12900
C2768       C  0.61585910  0.11774728  0.36983090    -0.12600
N2769       N  0.55083972  0.12033575  0.42821493     0.64600
H2770       H  0.53041649  0.08836264  0.37974779     0.12400
N2771       N  0.61959857  0.09365133  0.31818153     0.61200
H2772       H  0.63974075  0.12604773  0.36717189     0.08600
O2773       O  0.58478776  0.23374082  0.46485682    -0.40300
O2774       O  0.60954951  0.24331477  0.42186186    -0.39400
O2775       O  0.66547578  0.08884021  0.44053401    -0.39400
O2776       O  0.61940408  0.08176957  0.46114559    -0.37100
O2777       O  0.62285698  0.11420489  0.29723702    -0.38000
O2778       O  0.63720746  0.07016280  0.31809623    -0.34200
O2779       O  0.53314183  0.14374161  0.42853692    -0.35600
O2780       O  0.54817924  0.09987856  0.44933178    -0.39900
C2781       C  0.64246579  0.29116711  0.48850314    -0.13600
C2782       C  0.62428325  0.29899764  0.51449487     0.16800
C2783       C  0.61781913  0.27599194  0.53685794     0.03100
C2784       C  0.62716207  0.24531139  0.53194481    -0.12100
C2785       C  0.64247181  0.23563259  0.50418951    -0.03200
C2786       C  0.65284075  0.26035839  0.48381034     0.02300
C2787       C  0.60776113  0.32929303  0.51590154     0.09200
N2788       N  0.60149869  0.28348414  0.56498492     0.65500
H2789       H  0.62255597  0.22946002  0.55101587     0.18400
N2790       N  0.67618671  0.25577370  0.46028892     0.76000
H2791       H  0.64879470  0.30912976  0.47174930     0.09900
C2792       C  0.62239570  0.35781916  0.52404400     0.03600
C2793       C  0.60455704  0.38531991  0.52543671    -0.05100
C2794       C  0.57249459  0.38488530  0.51784681    -0.23500
C2795       C  0.55824668  0.35625424  0.50937780     0.12900
C2796       C  0.57574032  0.32893800  0.50901934    -0.12600
N2797       N  0.65527065  0.35941200  0.53016600     0.64600
H2798       H  0.61606386  0.40724596  0.53096933     0.12400
N2799       N  0.52631876  0.35468323  0.49935133     0.61200
H2800       H  0.56433365  0.30723519  0.50240422     0.08600
O2801       O  0.70440790  0.26061964  0.46784709    -0.40300
O2802       O  0.66873394  0.25891394  0.43184039    -0.39400
O2803       O  0.57278380  0.27676540  0.56731502    -0.39400
O2804       O  0.61692302  0.29054394  0.58927371    -0.37100
O2805       O  0.50586779  0.34420664  0.51792204    -0.38000
O2806       O  0.52045549  0.35500909  0.47035628    -0.34200
O2807       O  0.67334713  0.37006564  0.50934321    -0.35600
O2808       O  0.66505416  0.35713518  0.55800811    -0.39900
C2809       C  0.29114998  0.02786246  0.74103464    -0.13600
C2810       C  0.27985034  0.00430137  0.72114932     0.16800
C2811       C  0.30037251  0.98093426  0.71100773     0.03100
C2812       C  0.33198342  0.98202923  0.72005662    -0.12100
C2813       C  0.34362767  0.00588323  0.73975368    -0.03200
C2814       C  0.32260780  0.02871566  0.75061151     0.02300
C2815       C  0.24648451  0.00453249  0.71137626     0.09200
N2816       N  0.28916173  0.95555578  0.69223589     0.65500
H2817       H  0.34753309  0.96415519  0.71144526     0.18400
N2818       N  0.33229193  0.05187671  0.77271076     0.76000
H2819       H  0.27534000  0.04566007  0.74933194     0.09900
C2820       C  0.22269150  0.00009131  0.73335794     0.03600
C2821       C  0.19141380  0.00235691  0.72421253    -0.05100
C2822       C  0.18226197  0.00977937  0.69303307    -0.23500
C2823       C  0.20675984  0.00906848  0.67020322     0.12900
C2824       C  0.23832289  0.00820902  0.67981829    -0.12600
N2825       N  0.22989631  0.99147354  0.76491601     0.64600
H2826       H  0.17452353  0.99725034  0.74226570     0.12400
N2827       N  0.20061295  0.00536549  0.63745129     0.61200
H2828       H  0.25663172  0.00918728  0.66231562     0.08600
O2829       O  0.32862101  0.04663495  0.80157544    -0.40300
O2830       O  0.33695392  0.07948633  0.76355507    -0.39400
O2831       O  0.29630571  0.95406510  0.66361309    -0.39400
O2832       O  0.27030768  0.93584031  0.70368172    -0.37100
O2833       O  0.19489645  0.97820056  0.62753456    -0.38000
O2834       O  0.21227045  0.02479635  0.61848578    -0.34200
O2835       O  0.22889268  0.01174394  0.78626616    -0.35600
O2836       O  0.23072224  0.96297820  0.77222153    -0.39900
C2837       C  0.75749491  0.03088514  0.72171461    -0.13600
C2838       C  0.73744877  0.00860151  0.70834168     0.16800
C2839       C  0.75028375  0.98679062  0.68749650     0.03100
C2840       C  0.78248652  0.98738733  0.68071109    -0.12100
C2841       C  0.80333124  0.00990456  0.69371915    -0.03200
C2842       C  0.78979753  0.03178267  0.71511058     0.02300
C2843       C  0.70326547  0.00905550  0.71625867     0.09200
N2844       N  0.73096859  0.96372006  0.67273044     0.65500
H2845       H  0.79080219  0.96866070  0.66628924     0.18400
N2846       N  0.80868742  0.05334208  0.73276158     0.76000
H2847       H  0.74800345  0.04757344  0.73811803     0.09900
C2848       C  0.68865525  0.98525864  0.73400237     0.03600
C2849       C  0.65645912  0.98679642  0.74070149    -0.05100
C2850       C  0.63812743  0.01223145  0.73118349    -0.23500
C2851       C  0.65300240  0.03628043  0.71376984     0.12900
C2852       C  0.68508013  0.03442005  0.70650279    -0.12600
N2853       N  0.70642665  0.96032794  0.74713084     0.64600
H2854       H  0.64585420  0.96812656  0.75406473     0.12400
N2855       N  0.63561628  0.06180892  0.70142445     0.61200
H2856       H  0.69584072  0.05287231  0.69279431     0.08600
O2857       O  0.80789620  0.05264056  0.76233617    -0.40300
O2858       O  0.82281652  0.07549381  0.71928656    -0.39400
O2859       O  0.71876143  0.96979716  0.64646872    -0.39400
O2860       O  0.73337687  0.93563203  0.68114474    -0.37100
O2861       O  0.62668354  0.06085958  0.67322945    -0.38000
O2862       O  0.63621970  0.08760883  0.71558515    -0.34200
O2863       O  0.72149799  0.96504526  0.77219860    -0.35600
O2864       O  0.70021300  0.93267127  0.73907291    -0.39900
C2865       C  0.37398166  0.17472200  0.57971722    -0.13600
C2866       C  0.36458893  0.14353398  0.58229570     0.16800
C2867       C  0.34078718  0.13241053  0.56240276     0.03100
C2868       C  0.33087188  0.15075358  0.53708040    -0.12100
C2869       C  0.34447398  0.18028022  0.53056163    -0.03200
C2870       C  0.36289693  0.19379686  0.55527760     0.02300
C2871       C  0.37973104  0.12321462  0.60598113     0.09200
N2872       N  0.32737957  0.10207206  0.56673487     0.65500
H2873       H  0.31426543  0.14060858  0.52096547     0.18400
N2874       N  0.36804697  0.22671048  0.55834466     0.76000
H2875       H  0.38969573  0.18449738  0.59719512     0.09900
C2876       C  0.40494640  0.10385401  0.59789972     0.03600
C2877       C  0.41993535  0.08602917  0.62073796    -0.05100
C2878       C  0.41080584  0.08704775  0.65218154    -0.23500
C2879       C  0.38505471  0.10626695  0.66034320     0.12900
C2880       C  0.36987436  0.12405034  0.63721263    -0.12600
N2881       N  0.41692290  0.10292144  0.56682340     0.64600
H2882       H  0.43963563  0.07194080  0.61367315     0.12400
N2883       N  0.37350895  0.10773247  0.69168784     0.61200
H2884       H  0.35044824  0.13878042  0.64372344     0.08600
O2885       O  0.39578456  0.23674947  0.56094948    -0.40300
O2886       O  0.34638175  0.24306808  0.56955284    -0.39400
O2887       O  0.29988222  0.09954128  0.57720679    -0.39400
O2888       O  0.34016920  0.07870078  0.55443178    -0.37100
O2889       O  0.38247981  0.12963095  0.70937617    -0.38000
O2890       O  0.34925717  0.09232290  0.69875400    -0.34200
O2891       O  0.43865346  0.12168278  0.55970700    -0.35600
O2892       O  0.41417494  0.07786401  0.55156875    -0.39900
C2893       C  0.58267557  0.09197567  0.59005201    -0.13600
C2894       C  0.59980143  0.11836899  0.59959240     0.16800
C2895       C  0.59885593  0.12736231  0.63123846     0.03100
C2896       C  0.58053105  0.11043524  0.65255639    -0.12100
C2897       C  0.56272925  0.08417955  0.64322936    -0.03200
C2898       C  0.56428095  0.07484830  0.61135442     0.02300
C2899       C  0.61408869  0.13891339  0.57542706     0.09200
N2900       N  0.61500929  0.15467415  0.64185034     0.65500
H2901       H  0.58001678  0.11836672  0.67663961     0.18400
N2902       N  0.54701758  0.04854000  0.59986519     0.76000
H2903       H  0.58282508  0.08518173  0.56559006     0.09900
C2904       C  0.64650252  0.14096477  0.57026791     0.03600
C2905       C  0.65827601  0.16076958  0.54677989    -0.05100
C2906       C  0.63842782  0.17940565  0.52766825    -0.23500
C2907       C  0.60541650  0.17528917  0.53238237     0.12900
C2908       C  0.59405983  0.15600347  0.55629435    -0.12600
N2909       N  0.66774847  0.12159041  0.58720511     0.64600
H2910       H  0.68320602  0.15988823  0.54289380     0.12400
N2911       N  0.58251520  0.18969563  0.51280260     0.61200
H2912       H  0.56895441  0.15386477  0.55954969     0.08600
O2913       O  0.51955546  0.05240584  0.58962072    -0.40300
O2914       O  0.56142267  0.02396809  0.59284151    -0.39400
O2915       O  0.60058206  0.18020446  0.64279651    -0.39400
O2916       O  0.64013341  0.15180064  0.65720795    -0.37100
O2917       O  0.56995508  0.17340020  0.49151824    -0.38000
O2918       O  0.56719024  0.21219394  0.52379748    -0.34200
O2919       O  0.67683174  0.09655379  0.57484219    -0.35600
O2920       O  0.68327925  0.13303868  0.60966986    -0.39900
C2921       C  0.62556593  0.85775352  0.58399806    -0.13600
C2922       C  0.60560399  0.88217083  0.57614412     0.16800
C2923       C  0.60059969  0.88965345  0.54470008     0.03100
C2924       C  0.61446130  0.87192634  0.52137085    -0.12100
C2925       C  0.63394654  0.84594318  0.52820462    -0.03200
C2926       C  0.63958843  0.83948953  0.56072576     0.02300
C2927       C  0.58987071  0.89996004  0.60081234     0.09200
N2928       N  0.57973957  0.91412309  0.53595461     0.65500
H2929       H  0.60691003  0.87753516  0.49792399     0.18400
N2930       N  0.65836937  0.81391668  0.57102232     0.76000
H2931       H  0.62962222  0.85223962  0.60847574     0.09900
C2932       C  0.55963774  0.89163980  0.61118329     0.03600
C2933       C  0.54433079  0.91058060  0.63274177    -0.05100
C2934       C  0.55909705  0.93729264  0.64457655    -0.23500
C2935       C  0.58961014  0.94520996  0.63488604     0.12900
C2936       C  0.60461937  0.92672322  0.61267820    -0.12600
N2937       N  0.54448526  0.86378468  0.60054773     0.64600
H2938       H  0.52112839  0.90406135  0.64080712     0.12400
N2939       N  0.60582956  0.97143373  0.64793436     0.61200
H2940       H  0.62790589  0.93311251  0.60479648     0.08600
O2941       O  0.64467510  0.78924391  0.57972859    -0.40300
O2942       O  0.68522019  0.81974042  0.58214278    -0.39400
O2943       O  0.59082714  0.93995218  0.52696027    -0.39400
O2944       O  0.55125319  0.90785146  0.53085189    -0.37100
O2945       O  0.60949045  0.99575112  0.63166192    -0.38000
O2946       O  0.62217964  0.96780617  0.67233592    -0.34200
O2947       O  0.54640108  0.83938208  0.61697040    -0.35600
O2948       O  0.52353103  0.86552220  0.57970199    -0.39900
C2949       C  0.34799868  0.86408593  0.57600361    -0.13600
C2950       C  0.38017202  0.86994370  0.57651026     0.16800
C2951       C  0.39897368  0.85717069  0.55311560     0.03100
C2952       C  0.38525900  0.83989220  0.52883319    -0.12100
C2953       C  0.35248216  0.83376532  0.52713237    -0.03200
C2954       C  0.33376594  0.84654277  0.55195423     0.02300
C2955       C  0.39376313  0.89044865  0.60102543     0.09200
N2956       N  0.43215637  0.86191267  0.55357162     0.65500
H2957       H  0.40059779  0.83125749  0.51071367     0.18400
N2958       N  0.30031019  0.84427188  0.55291738     0.76000
H2959       H  0.33348137  0.87418744  0.59407474     0.09900
C2960       C  0.39408349  0.92308310  0.59744659     0.03600
C2961       C  0.40800032  0.94197826  0.62055569    -0.05100
C2962       C  0.42107716  0.92880677  0.64780355    -0.23500
C2963       C  0.42005464  0.89601088  0.65149919     0.12900
C2964       C  0.40670912  0.87721300  0.62805762    -0.12600
N2965       N  0.37998978  0.93724295  0.57058222     0.64600
H2966       H  0.40822116  0.96704699  0.61739428     0.12400
N2967       N  0.43344054  0.88128164  0.67839781     0.61200
H2968       H  0.40654907  0.85210521  0.63091111     0.08600
O2969       O  0.28430532  0.86474344  0.53909935    -0.40300
O2970       O  0.28774101  0.82931051  0.57510841    -0.39400
O2971       O  0.44929583  0.84376223  0.56923725    -0.39400
O2972       O  0.44386536  0.88629346  0.54172555    -0.37100
O2973       O  0.41574338  0.87195637  0.70015076    -0.38000
O2974       O  0.46124264  0.87160945  0.67723118    -0.34200
O2975       O  0.35127688  0.94395759  0.57102511    -0.35600
O2976       O  0.39486888  0.93881019  0.54513133    -0.39900
C2977       C  0.51318014  0.27303312  0.77722525    -0.13600
C2978       C  0.48746688  0.25532433  0.78710172     0.16800
C2979       C  0.46335099  0.27049528  0.80321912     0.03100
C2980       C  0.46521401  0.30268292  0.80894733    -0.12100
C2981       C  0.49115370  0.32133323  0.79944875    -0.03200
C2982       C  0.51506580  0.30538027  0.78236338     0.02300
C2983       C  0.48686012  0.22108116  0.78061033     0.09200
N2984       N  0.43679196  0.25357528  0.81455301     0.65500
H2985       H  0.44495445  0.31287268  0.81978253     0.18400
N2986       N  0.54066410  0.32150909  0.76801478     0.76000
H2987       H  0.53173340  0.26172721  0.76433657     0.09900
C2988       C  0.46713318  0.20768992  0.75752238     0.03600
C2989       C  0.46834403  0.17549456  0.75139787    -0.05100
C2990       C  0.48972820  0.15617181  0.76707349    -0.23500
C2991       C  0.50952290  0.16964635  0.79014589     0.12900
C2992       C  0.50786938  0.20171689  0.79667033    -0.12600
N2993       N  0.44719035  0.22666722  0.73864302     0.64600
H2994       H  0.45312804  0.16570007  0.73349630     0.12400
N2995       N  0.53044990  0.15092135  0.80821929     0.61200
H2996       H  0.52317372  0.21161682  0.81444021     0.08600
O2997       O  0.53851908  0.32804762  0.73923835    -0.40300
O2998       O  0.56765563  0.31852457  0.77976971    -0.39400
O2999       O  0.43656886  0.24508405  0.84285885    -0.39400
O3000       O  0.41111609  0.25562693  0.79999220    -0.37100
O3001       O  0.55906457  0.15023466  0.80100512    -0.38000
O3002       O  0.52209019  0.14159029  0.83499462    -0.34200
O3003       O  0.45799057  0.23851548  0.71381052    -0.35600
O3004       O  0.41790702  0.22453800  0.74196144    -0.39900
C3005       C  0.47058561  0.81429017  0.78507749    -0.13600
C3006       C  0.49574129  0.79659324  0.77393400     0.16800
C3007       C  0.51880341  0.81207861  0.75567140     0.03100
C3008       C  0.51683095  0.84441015  0.75008657    -0.12100
C3009       C  0.49199483  0.86220861  0.76188378    -0.03200
C3010       C  0.46855549  0.84652324  0.77948354     0.02300
C3011       C  0.49666390  0.76212574  0.78099853     0.09200
N3012       N  0.54483284  0.79561216  0.74307280     0.65500
H3013       H  0.53499711  0.85565854  0.73636303     0.18400
N3014       N  0.44305529  0.86304740  0.79307015     0.76000
H3015       H  0.45209844  0.80296897  0.79826964     0.09900
C3016       C  0.49317870  0.75036174  0.81169307     0.03600
C3017       C  0.49230677  0.71806851  0.81722791    -0.05100
C3018       C  0.49479776  0.69566979  0.79300033    -0.23500
C3019       C  0.49963683  0.70804317  0.76190879     0.12900
C3020       C  0.49957418  0.74054588  0.75661617    -0.12600
N3021       N  0.49142239  0.77090616  0.83794368     0.64600
H3022       H  0.48980301  0.71031147  0.84126591     0.12400
N3023       N  0.50690117  0.68918112  0.73528799     0.61200
H3024       H  0.50216179  0.74899618  0.73283591     0.08600
O3025       O  0.44492929  0.87172897  0.82126722    -0.40300
O3026       O  0.41669255  0.86260575  0.77960270    -0.39400
O3027       O  0.54536611  0.78973561  0.71410222    -0.39400
O3028       O  0.57001574  0.79452193  0.75858625    -0.37100
O3029       O  0.48827986  0.68919752  0.71224040    -0.38000
O3030       O  0.53518982  0.68276130  0.73018634    -0.34200
O3031       O  0.46570399  0.77392771  0.85204833    -0.35600
O3032       O  0.51638760  0.77986795  0.85116532    -0.39900
C3033       C  0.38407320  0.09118135  0.89825426    -0.13600
C3034       C  0.37919787  0.12265189  0.89029590     0.16800
C3035       C  0.39537999  0.13549353  0.86467162     0.03100
C3036       C  0.41523885  0.11673285  0.84693676    -0.12100
C3037       C  0.41956275  0.08509318  0.85433695    -0.03200
C3038       C  0.40420268  0.07242170  0.88056953     0.02300
C3039       C  0.35750980  0.14140489  0.90958409     0.09200
N3040       N  0.39105531  0.16721272  0.85565742     0.65500
H3041       H  0.42680320  0.12679015  0.82667378     0.18400
N3042       N  0.40776667  0.04032876  0.88864578     0.76000
H3043       H  0.37193728  0.08110167  0.91814756     0.09900
C3044       C  0.32546574  0.13410594  0.91063209     0.03600
C3045       C  0.30737159  0.14512522  0.93537568    -0.05100
C3046       C  0.32106001  0.16216576  0.96048968    -0.23500
C3047       C  0.35019245  0.17698427  0.95346734     0.12900
C3048       C  0.36902634  0.16496907  0.92936535    -0.12600
N3049       N  0.31101172  0.11527088  0.88695954     0.64600
H3050       H  0.28285225  0.13875560  0.93515077     0.12400
N3051       N  0.36159578  0.20286869  0.97134838     0.61200
H3052       H  0.39293630  0.17320617  0.92689680     0.08600
O3053       O  0.39261866  0.01967451  0.87383244    -0.40300
O3054       O  0.42918441  0.03242212  0.90741463    -0.39400
O3055       O  0.41202739  0.18700749  0.86226836    -0.39400
O3056       O  0.37061253  0.17377308  0.83530620    -0.37100
O3057       O  0.35403279  0.23001629  0.96294370    -0.38000
O3058       O  0.38497551  0.19948130  0.98915452    -0.34200
O3059       O  0.30509083  0.08695943  0.89258141    -0.35600
O3060       O  0.29757957  0.12842602  0.86416263    -0.39900
C3061       C  0.39876751  0.92422023  0.90876768    -0.13600
C3062       C  0.36810468  0.91658848  0.89963014     0.16800
C3063       C  0.35844344  0.92266434  0.86875231     0.03100
C3064       C  0.37972067  0.93541024  0.84719349    -0.12100
C3065       C  0.41075168  0.94306528  0.85603172    -0.03200
C3066       C  0.42000959  0.93756883  0.88746532     0.02300
C3067       C  0.34636860  0.90247707  0.92273291     0.09200
N3068       N  0.32669509  0.91712950  0.85942809     0.65500
H3069       H  0.37159843  0.94006277  0.82356472     0.18400
N3070       N  0.45099673  0.94466712  0.89810949     0.76000
H3071       H  0.40627666  0.91971145  0.93263425     0.09900
C3072       C  0.34112081  0.87018623  0.92376951     0.03600
C3073       C  0.32253179  0.85724171  0.94745144    -0.05100
C3074       C  0.30924305  0.87567533  0.97155117    -0.23500
C3075       C  0.31452913  0.90869426  0.96967939     0.12900
C3076       C  0.33239484  0.92142584  0.94518365    -0.12600
N3077       N  0.35744343  0.84977027  0.90313177     0.64600
H3078       H  0.32173596  0.83215419  0.94816170     0.12400
N3079       N  0.30519560  0.92949968  0.99413314     0.61200
H3080       H  0.33678924  0.94634040  0.94465930     0.08600
O3081       O  0.47112454  0.92331128  0.89894087    -0.40300
O3082       O  0.45580964  0.96929524  0.91357313    -0.39400
O3083       O  0.30564036  0.93584778  0.86771323    -0.39400
O3084       O  0.31907980  0.89151958  0.84695184    -0.37100
O3085       O  0.28074751  0.94544712  0.99059459    -0.38000
O3086       O  0.32586782  0.93933793  0.01296891    -0.34200
O3087       O  0.38483490  0.84137439  0.91023392    -0.35600
O3088       O  0.34230848  0.83462674  0.88268216    -0.39900
C3089       C  0.61394664  0.89457635  0.95190593    -0.13600
C3090       C  0.62323475  0.88704496  0.92154719     0.16800
C3091       C  0.65052287  0.86929172  0.91790182     0.03100
C3092       C  0.66764948  0.85993341  0.94432579    -0.12100
C3093       C  0.65795593  0.86591704  0.97544238    -0.03200
C3094       C  0.63020538  0.88441074  0.97854889     0.02300
C3095       C  0.60544675  0.90083530  0.89469599     0.09200
N3096       N  0.66076745  0.85946617  0.88767308     0.65500
H3097       H  0.68838080  0.84655208  0.94029644     0.18400
N3098       N  0.61876201  0.89590772  0.00767723     0.76000
H3099       H  0.59429864  0.91004494  0.95515864     0.09900
C3100       C  0.57229478  0.90069414  0.89426758     0.03600
C3101       C  0.55600389  0.91918233  0.87268512    -0.05100
C3102       C  0.57192143  0.93676155  0.85004813    -0.23500
C3103       C  0.60495114  0.93521204  0.84890358     0.12900
C3104       C  0.62138094  0.91804872  0.87159837    -0.12600
N3105       N  0.55477768  0.88110428  0.91501813     0.64600
H3106       H  0.53063137  0.91896138  0.87293575     0.12400
N3107       N  0.62224009  0.95134151  0.82524127     0.61200
H3108       H  0.64671846  0.91906863  0.87166604     0.08600
O3109       O  0.59054070  0.89058496  0.01482493    -0.40300
O3110       O  0.63243600  0.91891925  0.02004345    -0.39400
O3111       O  0.68566077  0.87090056  0.87650362    -0.39400
O3112       O  0.65023132  0.83419015  0.87664453    -0.37100
O3113       O  0.63279316  0.93612359  0.80237315    -0.38000
O3114       O  0.63312442  0.97818618  0.83089235    -0.34200
O3115       O  0.53826578  0.89322448  0.93614894    -0.35600
O3116       O  0.55035148  0.85288427  0.90785848    -0.39900
C3117       C  0.62127662  0.10453962  0.86899297    -0.13600
C3118       C  0.60764664  0.11180362  0.89783090     0.16800
C3119       C  0.57601415  0.10422349  0.90312063     0.03100
C3120       C  0.55875836  0.08853615  0.87999861    -0.12100
C3121       C  0.57233989  0.08083803  0.85110597    -0.03200
C3122       C  0.60388049  0.08957524  0.84546921     0.02300
C3123       C  0.62734182  0.12587472  0.92262078     0.09200
N3124       N  0.56119615  0.11210169  0.93195875     0.65500
H3125       H  0.53445983  0.08268786  0.88456013     0.18400
N3126       N  0.61889530  0.08279574  0.81639952     0.76000
H3127       H  0.64565117  0.11039235  0.86481411     0.09900
C3128       C  0.64849536  0.10759290  0.93942166     0.03600
C3129       C  0.66742811  0.12124579  0.96218751    -0.05100
C3130       C  0.66788600  0.15369899  0.96820880    -0.23500
C3131       C  0.64507115  0.17196378  0.95163587     0.12900
C3132       C  0.62550642  0.15773334  0.92908427    -0.12600
N3133       N  0.65136016  0.07497008  0.93341126     0.64600
H3134       H  0.68319442  0.10616916  0.97441140     0.12400
N3135       N  0.63959643  0.20424448  0.95785605     0.61200
H3136       H  0.60856850  0.17175605  0.91652089     0.08600
O3137       O  0.63591614  0.05898868  0.81426299    -0.40300
O3138       O  0.62069398  0.10370229  0.79563072    -0.39400
O3139       O  0.54460522  0.13626481  0.93336185    -0.39400
O3140       O  0.55951984  0.09210261  0.95360680    -0.37100
O3141       O  0.64770299  0.22397239  0.93741351    -0.38000
O3142       O  0.61767720  0.21134174  0.97619899    -0.34200
O3143       O  0.67390397  0.06544322  0.91705923    -0.35600
O3144       O  0.63616520  0.05575977  0.94995055    -0.39900
loop_ 
_geom_bond_atom_site_label_1 
_geom_bond_atom_site_label_2 
_geom_bond_distance 
_geom_bond_site_symmetry_2 
_ccdc_geom_bond_type 
O1          Zr37   2.453       .  S
O1           C12   1.296       .  A
O2          Zr36   2.456       .  S
O2           C13   1.295       .  A
O3           Zr9   2.462       .  S
O3           C14   1.296       .  A
O4           Zr9   2.461       .  S
O4           C15   1.296       .  A
O5          Zr39   2.463       .  S
O5           C15   1.296       .  A
O6          Zr38   2.467       .  S
O6           C14   1.298   1_565  A
O7           Zr9   2.447       .  S
O7           C13   1.295       .  A
O8           Zr9   2.427       .  S
O8           C12   1.290       .  A
Zr9          O10   2.351       .  S
Zr9          O11   2.351       .  S
Zr9          O19   2.347       .  S
Zr9          O17   2.333       .  S
O10         Zr36   2.351       .  S
O10         Zr39   2.349       .  S
O11         Zr37   2.358       .  S
O11         Zr38   2.341   1_545  S
C12        C3121   1.482       .  S
C13        C2897   1.501       .  S
C14        C2850   1.504       .  S
C15        C2990   1.494       .  S
H16          O17   0.967       .  S
O17         Zr36   2.339       .  S
O17         Zr38   2.344   1_545  S
H18          O19   0.965       .  S
O19         Zr37   2.338       .  S
O19         Zr39   2.340       .  S
O20         Zr36   2.453   1_565  S
O20          C43   1.296       .  A
O21         Zr37   2.464   1_565  S
O21          C44   1.297       .  A
O22         Zr38   2.418       .  S
O22          C45   1.288       .  A
O23         Zr39   2.406       .  S
O23          C46   1.285       .  A
O24         Zr39   2.399       .  S
O24          C47   1.285       .  A
O25         Zr38   2.427       .  S
O25          C48   1.289       .  A
O26         Zr40   2.449       .  S
O26          C49   1.294       .  A
O27         Zr40   2.439       .  S
O27          C50   1.293   1_565  A
O28         Zr38   2.476       .  S
O28          C49   1.300       .  A
O29         Zr39   2.467       .  S
O29          C50   1.297       .  A
O30         Zr36   2.443   1_565  S
O30          C45   1.293       .  A
O31         Zr37   2.471   1_565  S
O31          C48   1.299       .  A
O32         Zr37   2.479       .  S
O32          C47   1.300       .  A
O33         Zr36   2.475       .  S
O33          C46   1.301       .  A
O34         Zr40   2.447       .  S
O34          C43   1.294       .  A
O35         Zr40   2.441       .  S
O35          C44   1.294       .  A
Zr36         O42   2.357   1_545  S
Zr36         O54   2.329       .  S
Zr37         O41   2.349       .  S
Zr37         O52   2.343   1_545  S
Zr38         O42   2.344       .  S
Zr38         O52   2.349       .  S
Zr39         O41   2.341       .  S
Zr39         O54   2.342       .  S
Zr40         O41   2.345   1_565  S
Zr40         O42   2.338       .  S
Zr40         O54   2.348   1_565  S
Zr40         O52   2.346       .  S
C43        C2962   1.488       .  S
C44        C3065   1.497       .  S
C45        C2934   1.457       .  S
C46        C2878   1.493       .  S
C47        C3037   1.477       .  S
C48        C3102   1.482       .  S
C49        C3009   1.504       .  S
C50        C2813   1.491       .  S
H51          O52   0.960       .  S
H53          O54   0.968       .  S
C55        C2738   1.571       .  S
C55        C2757   1.567       .  S
C55        C2785   1.580       .  S
C55        C2906   1.588       .  S
O56         Zr92   2.452       .  S
O56          C67   1.295       .  A
O57         Zr91   2.428       .  S
O57          C68   1.292       .  A
O58         Zr64   2.451       .  S
O58          C69   1.295       .  A
O59         Zr64   2.469   1_565  S
O59          C70   1.297       .  A
O60         Zr94   2.416       .  S
O60          C70   1.289       .  A
O61         Zr93   2.424       .  S
O61          C69   1.289       .  A
O62         Zr64   2.447   1_565  S
O62          C68   1.293       .  A
O63         Zr64   2.434       .  S
O63          C67   1.293       .  A
Zr64         O65   2.350   1_545  S
Zr64         O66   2.356       .  S
Zr64         O74   2.335       .  S
Zr64         O72   2.337       .  S
O65         Zr91   2.340       .  S
O65         Zr94   2.334       .  S
O66         Zr92   2.348       .  S
O66         Zr93   2.352       .  S
C67        C2766   1.485       .  S
C68        C2486   1.491       .  S
C69        C2533   1.469       .  S
C70        C2505   1.497       .  S
H71          O72   0.965       .  S
O72         Zr91   2.337   1_545  S
O72         Zr93   2.344       .  S
H73          O74   0.967       .  S
O74         Zr92   2.348       .  S
O74         Zr94   2.336   1_545  S
O75         Zr91   2.425       .  S
O75          C98   1.289       .  A
O76         Zr92   2.441       .  S
O76          C99   1.292       .  A
O77         Zr93   2.469       .  S
O77         C100   1.299       .  A
O78         Zr94   2.438       .  S
O78         C101   1.291       .  A
O79         Zr94   2.427       .  S
O79         C102   1.291   1_565  A
O80         Zr93   2.460       .  S
O80         C103   1.296       .  A
O81         Zr95   2.442       .  S
O81         C104   1.293       .  A
O82         Zr95   2.461   1_565  S
O82         C105   1.298       .  A
O83         Zr93   2.449       .  S
O83         C104   1.295       .  A
O84         Zr94   2.408       .  S
O84         C105   1.286       .  A
O85         Zr91   2.447       .  S
O85         C100   1.294   1_565  A
O86         Zr92   2.456       .  S
O86         C103   1.296       .  A
O87         Zr92   2.449       .  S
O87         C102   1.293       .  A
O88         Zr91   2.472       .  S
O88         C101   1.299       .  A
O89         Zr95   2.454   1_565  S
O89          C98   1.295       .  A
O90         Zr95   2.472       .  S
O90          C99   1.299       .  A
Zr91         O97   2.346   1_565  S
Zr91        O109   2.335       .  S
Zr92         O96   2.347       .  S
Zr92        O107   2.349       .  S
Zr93         O97   2.334       .  S
Zr93        O107   2.351       .  S
Zr94         O96   2.343   1_565  S
Zr94        O109   2.334       .  S
Zr95         O96   2.344       .  S
Zr95         O97   2.352       .  S
Zr95        O109   2.337   1_545  S
Zr95        O107   2.345       .  S
C98        C2673   1.466       .  S
C99        C2626   1.503       .  S
C100       C2421   1.500       .  S
C101       C2598   1.492       .  S
C102       C2449   1.474       .  S
C103       C2570   1.489       .  S
C104       C2701   1.492       .  S
C105       C2645   1.472       .  S
H106        O107   0.961       .  S
H108        O109   0.967       .  S
C110       C2374   1.574   1_554  S
C110       C2393   1.573       .  S
C110       C2682   1.573       .  S
C110       C3074   1.568   1_554  S
C111       C2318   1.567       .  S
C111       C2337   1.572   1_554  S
C111       C2654   1.567       .  S
C111       C3093   1.581   1_554  S
C112       C2262   1.578       .  S
C112       C2281   1.569       .  S
C112       C2514   1.571       .  S
C112       C2925   1.574       .  S
C113       C2206   1.581       .  S
C113       C2234   1.573       .  S
C113       C2710   1.579   1_556  S
C113       C3046   1.582       .  S
C114       C2150   1.571       .  S
C114       C2178   1.578       .  S
C114       C2617   1.572   1_556  S
C114       C3130   1.579       .  S
C115       C2085   1.572       .  S
C115       C2113   1.578       .  S
C115       C2542   1.575       .  S
C115       C2869   1.574       .  S
C116       C2029   1.566       .  S
C116       C2066   1.576       .  S
C116       C2477   1.580       .  S
C116       C2953   1.577       .  S
O117       Zr153   2.466       .  S
O117        C128   1.296       .  A
O118       Zr152   2.442       .  S
O118        C129   1.293   1_455  A
O119       Zr125   2.443       .  S
O119        C130   1.295       .  A
O120       Zr125   2.453       .  S
O120        C131   1.295       .  A
O121       Zr155   2.438       .  S
O121        C131   1.293       .  A
O122       Zr154   2.416       .  S
O122        C130   1.288       .  A
O123       Zr125   2.453       .  S
O123        C129   1.295       .  A
O124       Zr125   2.444       .  S
O124        C128   1.294       .  A
Zr125       O126   2.347       .  S
Zr125       O127   2.345       .  S
Zr125       O135   2.336       .  S
Zr125       O133   2.343       .  S
O126       Zr152   2.342   1_655  S
O126       Zr155   2.357       .  S
O127       Zr153   2.338       .  S
O127       Zr154   2.351       .  S
C128       C2253   1.503       .  S
C129       C1777   1.491       .  S
C130       C1870   1.486       .  S
C131       C1973   1.481       .  S
H132        O133   0.964       .  S
O133       Zr152   2.338   1_655  S
O133       Zr154   2.339       .  S
H134        O135   0.963       .  S
O135       Zr153   2.337       .  S
O135       Zr155   2.341       .  S
O136       Zr152   2.439       .  S
O136        C159   1.292       .  A
O137       Zr153   2.451       .  S
O137        C160   1.295       .  A
O138       Zr154   2.470   1_455  S
O138        C161   1.299       .  A
O139       Zr155   2.472   1_455  S
O139        C162   1.298       .  A
O140       Zr155   2.453       .  S
O140        C163   1.294       .  A
O141       Zr154   2.467       .  S
O141        C164   1.298       .  A
O142       Zr156   2.432       .  S
O142        C165   1.292       .  A
O143       Zr156   2.427       .  S
O143        C166   1.290       .  A
O144       Zr154   2.433   1_455  S
O144        C165   1.291       .  A
O145       Zr155   2.469   1_455  S
O145        C166   1.298       .  A
O146       Zr152   2.426       .  S
O146        C161   1.289       .  A
O147       Zr153   2.439       .  S
O147        C164   1.291       .  A
O148       Zr153   2.403       .  S
O148        C163   1.285       .  A
O149       Zr152   2.421       .  S
O149        C162   1.289       .  A
O150       Zr156   2.456       .  S
O150        C159   1.296       .  A
O151       Zr156   2.420       .  S
O151        C160   1.290   1_455  A
Zr152       O158   2.343       .  S
Zr152       O170   2.342       .  S
Zr153       O157   2.351       .  S
Zr153       O168   2.334       .  S
Zr154       O158   2.350   1_655  S
Zr154       O168   2.327       .  S
Zr155       O157   2.347       .  S
Zr155       O170   2.332   1_655  S
Zr156       O157   2.342   1_455  S
Zr156       O158   2.335       .  S
Zr156       O170   2.334       .  S
Zr156       O168   2.346   1_455  S
C159       C2038   1.494       .  S
C160       C1749   1.477       .  S
C161       C1842   1.496       .  S
C162       C2001   1.478       .  S
C163       C1945   1.456       .  S
C164       C1889   1.487       .  S
C165       C1805   1.477       .  S
C166       C1917   1.486       .  S
H167        O168   0.963       .  S
H169        O170   0.965       .  S
O171       Zr207   2.457       .  S
O171        C182   1.295       .  A
O172       Zr206   2.431       .  S
O172        C183   1.291   1_455  A
O173       Zr179   2.455       .  S
O173        C184   1.295       .  A
O174       Zr179   2.418       .  S
O174        C185   1.289       .  A
O175       Zr209   2.425       .  S
O175        C185   1.290       .  A
O176       Zr208   2.459       .  S
O176        C184   1.297       .  A
O177       Zr179   2.453       .  S
O177        C183   1.295       .  A
O178       Zr179   2.414       .  S
O178        C182   1.288       .  A
Zr179       O180   2.335       .  S
Zr179       O181   2.338       .  S
Zr179       O189   2.349       .  S
Zr179       O187   2.321       .  S
O180       Zr206   2.330   1_655  S
O180       Zr209   2.339       .  S
O181       Zr207   2.342       .  S
O181       Zr208   2.325       .  S
C182       C2729   1.474       .  S
C183       C1506   1.488       .  S
C184       C1665   1.508       .  S
C185       C1562   1.457       .  S
H186        O187   0.965       .  S
O187       Zr206   2.347   1_655  S
O187       Zr208   2.356       .  S
H188        O189   1.015       .  S
O189       Zr207   2.333       .  S
O189       Zr209   2.343       .  S
O190       Zr206   2.432       .  S
O190        C213   1.291       .  A
O191       Zr207   2.462       .  S
O191        C214   1.296       .  A
O192       Zr208   2.438   1_455  S
O192        C215   1.293       .  A
O193       Zr209   2.432   1_455  S
O193        C216   1.291       .  A
O194       Zr209   2.442       .  S
O194        C217   1.293       .  A
O195       Zr208   2.466       .  S
O195        C218   1.299       .  A
O196       Zr210   2.414       .  S
O196        C219   1.288       .  A
O197       Zr210   2.426       .  S
O197        C220   1.292       .  A
O198       Zr208   2.444   1_455  S
O198        C219   1.295       .  A
O199       Zr209   2.435   1_455  S
O199        C220   1.290       .  A
O200       Zr206   2.435       .  S
O200        C215   1.293       .  A
O201       Zr207   2.393       .  S
O201        C218   1.283       .  A
O202       Zr207   2.409       .  S
O202        C217   1.286       .  A
O203       Zr206   2.457       .  S
O203        C216   1.296       .  A
O204       Zr210   2.459       .  S
O204        C213   1.297       .  A
O205       Zr210   2.450       .  S
O205        C214   1.295   1_455  A
Zr206       O212   2.332       .  S
Zr206       O224   2.347       .  S
Zr207       O211   2.324       .  S
Zr207       O222   2.342       .  S
Zr208       O212   2.338   1_655  S
Zr208       O222   2.354       .  S
Zr209       O211   2.322       .  S
Zr209       O224   2.358   1_655  S
Zr210       O211   2.328   1_455  S
Zr210       O212   2.327       .  S
Zr210       O224   2.340       .  S
Zr210       O222   2.350   1_455  S
C213       C2094   1.493       .  S
C214       C1469   1.497       .  S
C215       C1637   1.486       .  S
C216       C1581   1.481       .  S
C217       C1525   1.467       .  S
C218       C1702   1.486       .  S
C219       C1721   1.463       .  S
C220       C1618   1.486       .  S
H221        O222   0.966       .  S
H223        O224   0.966       .  S
C225       C1413   1.558       .  S
C225       C1441   1.584       .  S
C225       C1553   1.566       .  S
C225       C1861   1.570       .  S
C226       C1366   1.583       .  S
C226       C1394   1.584       .  S
C226       C1590   1.576       .  S
C226       C1833   1.582       .  S
C227       C1338   1.572       .  S
C227       C1693   1.554       .  S
C227       C1954   1.558   1_545  S
C227       C2458   1.581       .  S
C228       C1301   1.568       .  S
C228       C1674   1.583       .  S
C228       C1982   1.576   1_545  S
C228       C2841   1.580       .  S
C229       C1254   1.584       .  S
C229       C1273   1.565       .  S
C229       C1534   1.565       .  S
C229       C1898   1.594       .  S
C230       C1189   1.569       .  S
C230       C1217   1.562       .  S
C230       C1609   1.578       .  S
C230       C1814   1.561       .  S
C231       C1161   1.596       .  S
C231       C1730   1.563       .  S
C231       C1926   1.569   1_545  S
C231       C2430   1.580       .  S
C232       C1133   1.586       .  S
C232       C1646   1.562       .  S
C232       C2010   1.578   1_545  S
C232       C2822   1.574       .  S
O233       Zr269   2.447       .  S
O233        C244   1.294       .  A
O234       Zr268   2.465       .  S
O234        C245   1.298       .  A
O235       Zr241   2.438       .  S
O235        C246   1.292       .  A
O236       Zr241   2.421       .  S
O236        C247   1.290       .  A
O237       Zr271   2.433   1_554  S
O237        C247   1.291       .  A
O238       Zr270   2.454   1_554  S
O238        C246   1.294       .  A
O239       Zr241   2.439       .  S
O239        C245   1.291       .  A
O240       Zr241   2.440       .  S
O240        C244   1.292   1_554  A
Zr241       O242   2.335       .  S
Zr241       O243   2.330   1_554  S
Zr241       O251   2.352   1_554  S
Zr241       O249   2.342       .  S
O242       Zr268   2.330       .  S
O242       Zr271   2.339   1_554  S
O243       Zr269   2.344       .  S
O243       Zr270   2.341       .  S
C244       C2309   1.495       .  S
C245       C1245   1.499       .  S
C246        C937   1.477       .  S
C247       C1105   1.467       .  S
H248        O249   0.966       .  S
O249       Zr268   2.348       .  S
O249       Zr270   2.357   1_554  S
H250        O251   0.967       .  S
O251       Zr269   2.340       .  S
O251       Zr271   2.361       .  S
O252       Zr268   2.465       .  S
O252        C275   1.297   1_554  A
O253       Zr269   2.448       .  S
O253        C276   1.293       .  A
O254       Zr270   2.474   1_554  S
O254        C277   1.300       .  A
O255       Zr271   2.463   1_554  S
O255        C278   1.296       .  A
O256       Zr271   2.461       .  S
O256        C279   1.296       .  A
O257       Zr270   2.463       .  S
O257        C280   1.298       .  A
O258       Zr272   2.451       .  S
O258        C281   1.296       .  A
O259       Zr272   2.460       .  S
O259        C282   1.297       .  A
O260       Zr270   2.454       .  S
O260        C281   1.295       .  A
O261       Zr271   2.456       .  S
O261        C282   1.295       .  A
O262       Zr268   2.422       .  S
O262        C277   1.289       .  A
O263       Zr269   2.438       .  S
O263        C280   1.292       .  A
O264       Zr269   2.462       .  S
O264        C279   1.297       .  A
O265       Zr268   2.430       .  S
O265        C278   1.291       .  A
O266       Zr272   2.439       .  S
O266        C275   1.292       .  A
O267       Zr272   2.429       .  S
O267        C276   1.292       .  A
Zr268       O274   2.339   1_554  S
Zr268       O286   2.342   1_554  S
Zr269       O273   2.345       .  S
Zr269       O284   2.352       .  S
Zr270       O274   2.341       .  S
Zr270       O284   2.358       .  S
Zr271       O273   2.342       .  S
Zr271       O286   2.354       .  S
Zr272       O273   2.345       .  S
Zr272       O274   2.335       .  S
Zr272       O286   2.345       .  S
Zr272       O284   2.345       .  S
C275       C2141   1.485       .  S
C276       C1422   1.486       .  S
C277        C909   1.496       .  S
C278       C1021   1.477       .  S
C279       C1077   1.506       .  S
C280        C965   1.490       .  S
C281        C993   1.497       .  S
C282       C1049   1.507       .  S
H283        O284   0.967       .  S
H285        O286   0.963       .  S
O287       Zr323   2.427       .  S
O287        C298   1.289   1_556  A
O288       Zr322   2.454       .  S
O288        C299   1.295       .  A
O289       Zr295   2.440       .  S
O289        C300   1.292       .  A
O290       Zr295   2.427       .  S
O290        C301   1.291       .  A
O291       Zr325   2.481   1_554  S
O291        C301   1.300       .  A
O292       Zr324   2.453       .  S
O292        C300   1.297       .  A
O293       Zr295   2.439       .  S
O293        C299   1.294       .  A
O294       Zr295   2.485       .  S
O294        C298   1.300       .  A
Zr295       O296   2.352       .  S
Zr295       O297   2.341       .  S
Zr295       O305   2.339       .  S
Zr295       O303   2.354       .  S
O296       Zr322   2.352       .  S
O296       Zr325   2.350   1_554  S
O297       Zr323   2.338   1_554  S
O297       Zr324   2.352       .  S
C298       C2365   1.487   1_554  S
C299       C1198   1.485       .  S
C300        C741   1.497       .  S
C301        C853   1.499       .  S
H302        O303   0.964       .  S
O303       Zr322   2.346       .  S
O303       Zr324   2.331       .  S
H304        O305   0.967       .  S
O305       Zr323   2.346   1_554  S
O305       Zr325   2.345   1_554  S
O306       Zr322   2.462       .  S
O306        C329   1.297   1_554  A
O307       Zr323   2.430       .  S
O307        C330   1.290       .  A
O308       Zr324   2.454       .  S
O308        C331   1.295       .  A
O309       Zr325   2.456   1_554  S
O309        C332   1.295       .  A
O310       Zr325   2.459       .  S
O310        C333   1.297       .  A
O311       Zr324   2.455   1_556  S
O311        C334   1.295       .  A
O312       Zr326   2.445       .  S
O312        C335   1.294       .  A
O313       Zr326   2.419       .  S
O313        C336   1.290       .  A
O314       Zr324   2.442   1_556  S
O314        C335   1.294       .  A
O315       Zr325   2.465       .  S
O315        C336   1.297       .  A
O316       Zr322   2.453       .  S
O316        C331   1.295       .  A
O317       Zr323   2.442       .  S
O317        C334   1.294       .  A
O318       Zr323   2.419       .  S
O318        C333   1.289       .  A
O319       Zr322   2.433       .  S
O319        C332   1.293       .  A
O320       Zr326   2.471       .  S
O320        C329   1.298       .  A
O321       Zr326   2.462       .  S
O321        C330   1.296       .  A
Zr322       O328   2.342   1_554  S
Zr322       O340   2.343   1_554  S
Zr323       O327   2.338       .  S
Zr323       O338   2.330       .  S
Zr324       O328   2.356   1_554  S
Zr324       O338   2.336   1_554  S
Zr325       O327   2.353       .  S
Zr325       O340   2.349       .  S
Zr326       O327   2.341       .  S
Zr326       O328   2.344       .  S
Zr326       O340   2.347       .  S
Zr326       O338   2.342       .  S
C329       C2197   1.506       .  S
C330       C1357   1.483       .  S
C331        C722   1.497       .  S
C332        C890   1.497       .  S
C333        C825   1.479       .  S
C334        C778   1.499       .  S
C335        C694   1.489       .  S
C336        C806   1.496       .  S
H337        O338   0.964       .  S
H339        O340   0.960       .  S
C341        C666   1.573   1_655  S
C341        C769   1.574   1_655  S
C341       C1086   1.583       .  S
C341       C1786   1.574       .  S
C342        C638   1.559   1_655  S
C342        C685   1.568   1_655  S
C342       C1058   1.588       .  S
C342       C1497   1.576       .  S
C343        C601   1.569       .  S
C343        C834   1.574       .  S
C343        C974   1.583       .  S
C343       C3018   1.584       .  S
C344        C582   1.577       .  S
C344        C862   1.572       .  S
C344        C946   1.576       .  S
C344       C2589   1.576       .  S
C345        C545   1.592       .  S
C345        C713   1.574   1_655  S
C345       C1030   1.581       .  S
C345       C1478   1.575       .  S
C346        C526   1.554       .  S
C346        C750   1.569   1_655  S
C346       C1114   1.571       .  S
C346       C1758   1.584       .  S
C347        C489   1.572       .  S
C347        C797   1.577       .  S
C347       C1002   1.576       .  S
C347       C2981   1.588       .  S
C348        C461   1.560       .  S
C348        C881   1.596       .  S
C348        C918   1.584       .  S
C348       C2561   1.571       .  S
O349       Zr385   2.485       .  S
O349        C360   1.300       .  A
O350       Zr384   2.452       .  S
O350        C361   1.294       .  A
O351       Zr357   2.489       .  S
O351        C362   1.302       .  A
O352       Zr357   2.483       .  S
O352        C363   1.299       .  A
O353       Zr387   2.377       .  S
O353        C363   1.282       .  A
O354       Zr386   2.406       .  S
O354        C362   1.286       .  A
O355       Zr357   2.403       .  S
O355        C361   1.286       .  A
O356       Zr357   2.405       .  S
O356        C360   1.285       .  A
Zr357       O358   2.336       .  S
Zr357       O359   2.331       .  S
Zr357       O367   2.341       .  S
Zr357       O365   2.354       .  S
O358       Zr384   2.325       .  S
O358       Zr387   2.324       .  S
O359       Zr385   2.325       .  S
O359       Zr386   2.341       .  S
C360       C2794   1.481       .  S
C361        C470   1.468       .  S
C362       C2122   1.499       .  S
C363       C1282   1.470       .  S
H364        O365   0.967       .  S
O365       Zr384   2.352       .  S
O365       Zr386   2.354       .  S
H366        O367   0.967       .  S
O367       Zr385   2.328       .  S
O367       Zr387   2.349       .  S
O368       Zr384   2.476       .  S
O368        C391   1.298       .  A
O369       Zr385   2.451       .  S
O369        C392   1.293       .  A
O370       Zr386   2.473       .  S
O370        C393   1.297       .  A
O371       Zr387   2.495       .  S
O371        C394   1.302       .  A
O372       Zr387   2.465       .  S
O372        C395   1.296       .  A
O373       Zr386   2.483       .  S
O373        C396   1.300       .  A
O374       Zr388   2.487       .  S
O374        C397   1.301       .  A
O375       Zr388   2.486       .  S
O375        C398   1.301       .  A
O376       Zr386   2.420       .  S
O376        C397   1.288       .  A
O377       Zr387   2.408       .  S
O377        C398   1.286       .  A
O378       Zr384   2.387       .  S
O378        C393   1.284       .  A
O379       Zr385   2.397       .  S
O379        C396   1.285       .  A
O380       Zr385   2.399       .  S
O380        C395   1.286       .  A
O381       Zr384   2.385       .  S
O381        C394   1.281       .  A
O382       Zr388   2.419       .  S
O382        C391   1.288       .  A
O383       Zr388   2.422       .  S
O383        C392   1.290       .  A
Zr384       O390   2.329       .  S
Zr384       O402   2.330       .  S
Zr385       O389   2.345       .  S
Zr385       O400   2.352       .  S
Zr386       O390   2.345       .  S
Zr386       O400   2.345       .  S
Zr387       O389   2.342       .  S
Zr387       O402   2.329       .  S
Zr388       O389   2.348       .  S
Zr388       O390   2.344       .  S
Zr388       O402   2.344       .  S
Zr388       O400   2.352       .  S
C391       C2057   1.476       .  S
C392        C610   1.464       .  S
C393       C1226   1.487       .  S
C394        C573   1.473       .  S
C395       C1450   1.477       .  S
C396        C498   1.479       .  S
C397       C1385   1.482       .  S
C398       C2290   1.495       .  S
H399        O400   0.967       .  S
H401        O402   0.962       .  S
O403       Zr439   2.463       .  S
O403        C414   1.295       .  A
O404       Zr438   2.458   1_455  S
O404        C415   1.295       .  A
O405       Zr411   2.476       .  S
O405        C416   1.298       .  A
O406       Zr411   2.463   1_545  S
O406        C417   1.297       .  A
O407       Zr441   2.417       .  S
O407        C417   1.289   1_554  A
O408       Zr440   2.411       .  S
O408        C416   1.287   1_655  A
O409       Zr411   2.419   1_545  S
O409        C415   1.290       .  A
O410       Zr411   2.413       .  S
O410        C414   1.287   1_556  A
Zr411       O412   2.342   1_565  S
Zr411       O413   2.329   1_556  S
Zr411       O421   2.350   1_566  S
Zr411       O419   2.335   1_455  S
O412       Zr438   2.341   1_455  S
O412       Zr441   2.355   1_556  S
O413       Zr439   2.329       .  S
O413       Zr440   2.336   1_454  S
C414       C2402   1.468       .  S
C415       C1142   1.492       .  S
C416        C657   1.477       .  S
C417       C2225   1.476       .  S
H418        O419   0.963       .  S
O419       Zr438   2.330   1_565  S
O419       Zr440   2.332       .  S
H420        O421   0.966       .  S
O421       Zr439   2.327   1_545  S
O421       Zr441   2.347       .  S
O422       Zr438   2.476       .  S
O422        C445   1.298       .  A
O423       Zr439   2.439   1_655  S
O423        C446   1.292       .  A
O424       Zr440   2.481       .  S
O424        C447   1.298       .  A
O425       Zr441   2.485   1_556  S
O425        C448   1.299       .  A
O426       Zr441   2.501       .  S
O426        C449   1.302       .  A
O427       Zr440   2.455   1_554  S
O427        C450   1.294       .  A
O428       Zr442   2.470   1_565  S
O428        C451   1.298       .  A
O429       Zr442   2.481       .  S
O429        C452   1.299       .  A
O430       Zr440   2.407       .  S
O430        C451   1.287   1_556  A
O431       Zr441   2.423   1_655  S
O431        C452   1.290       .  A
O432       Zr438   2.389       .  S
O432        C447   1.283   1_545  A
O433       Zr439   2.388   1_655  S
O433        C450   1.284       .  A
O434       Zr439   2.400   1_545  S
O434        C449   1.286       .  A
O435       Zr438   2.375       .  S
O435        C448   1.282   1_655  A
O436       Zr442   2.409   1_556  S
O436        C445   1.286       .  A
O437       Zr442   2.426       .  S
O437        C446   1.290   1_545  A
Zr438       O444   2.325       .  S
Zr438       O456   2.333       .  S
Zr439       O443   2.334   1_465  S
Zr439       O454   2.344   1_455  S
Zr440       O444   2.334   1_565  S
Zr440       O454   2.356   1_556  S
Zr441       O443   2.342   1_455  S
Zr441       O456   2.354   1_454  S
Zr442       O443   2.342       .  S
Zr442       O444   2.343   1_554  S
Zr442       O456   2.346   1_554  S
Zr442       O454   2.350   1_545  S
C445       C2169   1.472       .  S
C446       C1329   1.470       .  S
C447       C1310   1.471       .  S
C448        C629   1.493       .  S
C449       C1170   1.504       .  S
C450        C517   1.467       .  S
C451       C2346   1.481       .  S
C452        C554   1.479       .  S
H453        O454   0.966       .  S
H455        O456   0.961       .  S
C457        C458   1.398       .  A
C457        C462   1.399       .  A
C457        H467   1.085       .  S
C458        C463   1.468       .  S
C458        C459   1.395       .  A
C459        C460   1.394       .  A
C459        N464   1.429       .  S
C460        C461   1.425       .  A
C460        H465   1.084       .  S
C461        C462   1.433       .  A
C462        N466   1.432       .  S
C463        C468   1.409       .  A
C463        C472   1.395       .  A
N464        O479   1.261       .  A
N464        O480   1.262       .  A
N466        O477   1.262       .  A
N466        O478   1.261       .  A
C468        C469   1.401       .  A
C468        N473   1.427       .  S
C469        C470   1.401       .  A
C469        H474   1.084       .  S
C470        C471   1.413       .  A
C471        C472   1.389       .  A
C471        N475   1.428       .  S
C472        H476   1.085       .  S
N473        O483   1.262       .  A
N473        O484   1.262       .  A
N475        O481   1.262       .  A
N475        O482   1.261       .  A
C485        C486   1.402       .  A
C485        C490   1.411       .  A
C485        H495   1.084       .  S
C486        C491   1.482       .  S
C486        C487   1.396       .  A
C487        C488   1.393       .  A
C487        N492   1.429       .  S
C488        C489   1.424       .  A
C488        H493   1.082       .  S
C489        C490   1.437       .  A
C490        N494   1.438       .  S
C491        C496   1.413       .  A
C491        C500   1.397       .  A
N492        O507   1.262       .  A
N492        O508   1.261       .  A
N494        O505   1.263       .  A
N494        O506   1.261       .  A
C496        C497   1.406       .  A
C496        N501   1.428       .  S
C497        C498   1.402       .  A
C497        H502   1.084       .  S
C498        C499   1.415       .  A
C499        C500   1.397       .  A
C499        N503   1.429       .  S
C500        H504   1.084       .  S
N501        O511   1.262       .  A
N501        O512   1.262       .  A
N503        O509   1.261       .  A
N503        O510   1.262       .  A
C513        C514   1.407       .  A
C513        C518   1.402       .  A
C513        H523   1.084       .  S
C514        C519   1.471       .  S
C514        C515   1.405   1_655  A
C515        C516   1.387       .  A
C515        N520   1.430       .  S
C516        C517   1.406   1_455  A
C516        H521   1.085       .  S
C517        C518   1.406       .  A
C518        N522   1.428       .  S
C519        C524   1.400       .  A
C519        C528   1.397   1_655  A
N520        O535   1.262       .  A
N520        O536   1.262       .  A
N522        O533   1.262       .  A
N522        O534   1.262       .  A
C524        C525   1.391       .  A
C524        N529   1.430       .  S
C525        C526   1.419       .  A
C525        H530   1.083       .  S
C526        C527   1.436   1_655  A
C527        C528   1.399       .  A
C527        N531   1.436       .  S
C528        H532   1.083       .  S
N529        O539   1.262       .  A
N529        O540   1.262       .  A
N531        O537   1.262       .  A
N531        O538   1.260       .  A
C541        C542   1.396   1_455  A
C541        C546   1.405       .  A
C541        H551   1.084       .  S
C542        C547   1.489       .  S
C542        C543   1.403       .  A
C543        C544   1.404       .  A
C543        N548   1.429       .  S
C544        C545   1.424       .  A
C544        H549   1.076       .  S
C545        C546   1.433   1_655  A
C546        N550   1.428       .  S
C547        C552   1.410       .  A
C547        C556   1.407       .  A
N548        O563   1.262       .  A
N548        O564   1.262       .  A
N550        O561   1.262       .  A
N550        O562   1.263       .  A
C552        C553   1.401       .  A
C552        N557   1.428       .  S
C553        C554   1.404       .  A
C553        H558   1.085       .  S
C554        C555   1.408       .  A
C555        C556   1.407       .  A
C555        N559   1.428       .  S
C556        H560   1.084       .  S
N557        O567   1.262   1_655  A
N557        O568   1.262       .  A
N559        O565   1.261       .  A
N559        O566   1.262       .  A
C569        C570   1.401       .  A
C569        C574   1.395       .  A
C569        H579   1.085       .  S
C570        C575   1.489       .  S
C570        C571   1.415       .  A
C571        C572   1.407       .  A
C571        N576   1.429       .  S
C572        C573   1.404       .  A
C572        H577   1.084       .  S
C573        C574   1.410       .  A
C574        N578   1.427       .  S
C575        C580   1.404       .  A
C575        C584   1.396       .  A
N576        O591   1.261       .  A
N576        O592   1.262       .  A
N578        O589   1.262       .  A
N578        O590   1.262       .  A
C580        C581   1.400       .  A
C580        N585   1.430       .  S
C581        C582   1.416       .  A
C581        H586   1.068       .  S
C582        C583   1.440       .  A
C583        C584   1.401       .  A
C583        N587   1.432       .  S
C584        H588   1.085       .  S
N585        O595   1.262       .  A
N585        O596   1.262       .  A
N587        O593   1.262       .  A
N587        O594   1.262       .  A
C597        C598   1.397       .  A
C597        C602   1.403       .  A
C597        H607   1.084       .  S
C598        C603   1.479       .  S
C598        C599   1.399       .  A
C599        C600   1.396       .  A
C599        N604   1.429       .  S
C600        C601   1.420       .  A
C600        H605   1.073       .  S
C601        C602   1.435       .  A
C602        N606   1.433       .  S
C603        C608   1.411       .  A
C603        C612   1.403       .  A
N604        O619   1.262       .  A
N604        O620   1.262       .  A
N606        O617   1.263       .  A
N606        O618   1.261       .  A
C608        C609   1.401       .  A
C608        N613   1.429       .  S
C609        C610   1.401       .  A
C609        H614   1.084       .  S
C610        C611   1.406       .  A
C611        C612   1.399       .  A
C611        N615   1.429       .  S
C612        H616   1.084       .  S
N613        O623   1.262       .  A
N613        O624   1.262       .  A
N615        O621   1.261       .  A
N615        O622   1.261       .  A
C625        C626   1.405       .  A
C625        C630   1.409       .  A
C625        H635   1.084       .  S
C626        C631   1.470       .  S
C626        C627   1.398   1_455  A
C627        C628   1.385   1_655  A
C627        N632   1.431       .  S
C628        C629   1.416       .  A
C628        H633   1.083   1_455  S
C629        C630   1.413       .  A
C630        N634   1.428       .  S
C631        C636   1.401   1_455  A
C631        C640   1.394       .  A
N632        O647   1.262       .  A
N632        O648   1.262       .  A
N634        O645   1.261       .  A
N634        O646   1.262       .  A
C636        C637   1.393       .  A
C636        N641   1.429       .  S
C637        C638   1.412   1_655  A
C637        H642   1.077       .  S
C638        C639   1.436       .  A
C639        C640   1.402       .  A
C639        N643   1.432       .  S
C640        H644   1.084       .  S
N641        O651   1.261       .  A
N641        O652   1.262       .  A
N643        O649   1.261       .  A
N643        O650   1.262       .  A
C653        C654   1.401       .  A
C653        C658   1.391       .  A
C653        H663   1.085       .  S
C654        C659   1.492       .  S
C654        C655   1.418       .  A
C655        C656   1.411       .  A
C655        N660   1.429       .  S
C656        C657   1.404       .  A
C656        H661   1.084       .  S
C657        C658   1.411       .  A
C658        N662   1.429       .  S
C659        C664   1.402       .  A
C659        C668   1.404   1_455  A
N660        O675   1.262       .  A
N660        O676   1.262       .  A
N662        O673   1.260       .  A
N662        O674   1.261   1_455  A
C664        C665   1.400       .  A
C664        N669   1.429       .  S
C665        C666   1.422       .  A
C665        H670   1.076       .  S
C666        C667   1.432   1_455  A
C667        C668   1.404       .  A
C667        N671   1.433       .  S
C668        H672   1.085       .  S
N669        O679   1.262       .  A
N669        O680   1.262       .  A
N671        O677   1.263       .  A
N671        O678   1.261       .  A
C681        C682   1.392       .  A
C681        C686   1.399       .  A
C681        H691   1.085       .  S
C682        C687   1.473       .  S
C682        C683   1.397       .  A
C683        C684   1.396       .  A
C683        N688   1.429       .  S
C684        C685   1.422       .  A
C684        H689   1.083       .  S
C685        C686   1.442       .  A
C686        N690   1.434       .  S
C687        C692   1.406       .  A
C687        C696   1.398       .  A
N688        O703   1.262       .  A
N688        O704   1.262       .  A
N690        O701   1.261       .  A
N690        O702   1.262       .  A
C692        C693   1.399       .  A
C692        N697   1.430       .  S
C693        C694   1.409       .  A
C693        H698   1.084       .  S
C694        C695   1.419       .  A
C695        C696   1.401       .  A
C695        N699   1.429       .  S
C696        H700   1.084       .  S
N697        O707   1.262       .  A
N697        O708   1.262       .  A
N699        O705   1.262       .  A
N699        O706   1.262       .  A
C709        C710   1.400       .  A
C709        C714   1.411       .  A
C709        H719   1.084       .  S
C710        C715   1.489       .  S
C710        C711   1.403       .  A
C711        C712   1.398       .  A
C711        N716   1.429       .  S
C712        C713   1.420       .  A
C712        H717   1.083       .  S
C713        C714   1.435       .  A
C714        N718   1.434       .  S
C715        C720   1.411       .  A
C715        C724   1.401       .  A
N716        O731   1.262       .  A
N716        O732   1.261       .  A
N718        O729   1.262       .  A
N718        O730   1.260       .  A
C720        C721   1.406       .  A
C720        N725   1.429       .  S
C721        C722   1.406       .  A
C721        H726   1.084       .  S
C722        C723   1.416       .  A
C723        C724   1.405       .  A
C723        N727   1.426       .  S
C724        H728   1.084       .  S
N725        O735   1.262       .  A
N725        O736   1.261       .  A
N727        O733   1.262       .  A
N727        O734   1.262       .  A
C737        C738   1.396       .  A
C737        C742   1.401       .  A
C737        H747   1.084       .  S
C738        C743   1.482       .  S
C738        C739   1.407       .  A
C739        C740   1.399       .  A
C739        N744   1.429       .  S
C740        C741   1.410       .  A
C740        H745   1.083       .  S
C741        C742   1.422       .  A
C742        N746   1.428       .  S
C743        C748   1.404       .  A
C743        C752   1.394       .  A
N744        O759   1.262       .  A
N744        O760   1.262       .  A
N746        O757   1.260       .  A
N746        O758   1.261       .  A
C748        C749   1.399       .  A
C748        N753   1.429       .  S
C749        C750   1.417       .  A
C749        H754   1.077       .  S
C750        C751   1.437       .  A
C751        C752   1.397       .  A
C751        N755   1.432   1_455  S
C752        H756   1.084       .  S
N753        O763   1.262       .  A
N753        O764   1.262       .  A
N755        O761   1.262       .  A
N755        O762   1.261   1_655  A
C765        C766   1.395       .  A
C765        C770   1.405       .  A
C765        H775   1.084       .  S
C766        C771   1.483       .  S
C766        C767   1.399       .  A
C767        C768   1.400       .  A
C767        N772   1.428       .  S
C768        C769   1.416       .  A
C768        H773   1.077       .  S
C769        C770   1.442       .  A
C770        N774   1.433       .  S
C771        C776   1.405       .  A
C771        C780   1.402       .  A
N772        O787   1.262       .  A
N772        O788   1.262       .  A
N774        O785   1.262       .  A
N774        O786   1.262       .  A
C776        C777   1.401       .  A
C776        N781   1.429       .  S
C777        C778   1.411       .  A
C777        H782   1.083       .  S
C778        C779   1.419       .  A
C779        C780   1.406       .  A
C779        N783   1.429       .  S
C780        H784   1.084       .  S
N781        O791   1.262       .  A
N781        O792   1.262       .  A
N783        O789   1.262       .  A
N783        O790   1.262       .  A
C793        C794   1.397       .  A
C793        C798   1.403       .  A
C793        H803   1.084       .  S
C794        C799   1.480       .  S
C794        C795   1.402       .  A
C795        C796   1.397       .  A
C795        N800   1.430       .  S
C796        C797   1.424       .  A
C796        H801   1.077       .  S
C797        C798   1.432       .  A
C798        N802   1.431       .  S
C799        C804   1.404       .  A
C799        C808   1.403       .  A
N800        O815   1.262       .  A
N800        O816   1.262       .  A
N802        O813   1.262       .  A
N802        O814   1.262       .  A
C804        C805   1.397       .  A
C804        N809   1.429       .  S
C805        C806   1.412       .  A
C805        H810   1.083       .  S
C806        C807   1.416       .  A
C807        C808   1.404       .  A
C807        N811   1.429       .  S
C808        H812   1.084       .  S
N809        O819   1.262       .  A
N809        O820   1.262       .  A
N811        O817   1.262       .  A
N811        O818   1.261       .  A
C821        C822   1.406       .  A
C821        C826   1.405       .  A
C821        H831   1.084       .  S
C822        C827   1.481       .  S
C822        C823   1.407       .  A
C823        C824   1.399       .  A
C823        N828   1.429       .  S
C824        C825   1.405       .  A
C824        H829   1.084       .  S
C825        C826   1.409       .  A
C826        N830   1.430       .  S
C827        C832   1.407       .  A
C827        C836   1.390       .  A
N828        O843   1.262       .  A
N828        O844   1.261       .  A
N830        O841   1.262       .  A
N830        O842   1.262       .  A
C832        C833   1.407       .  A
C832        N837   1.428       .  S
C833        C834   1.418       .  A
C833        H838   1.079       .  S
C834        C835   1.438       .  A
C835        C836   1.394       .  A
C835        N839   1.431       .  S
C836        H840   1.085       .  S
N837        O847   1.262       .  A
N837        O848   1.262       .  A
N839        O845   1.262       .  A
N839        O846   1.261       .  A
C849        C850   1.404       .  A
C849        C854   1.407       .  A
C849        H859   1.083       .  S
C850        C855   1.488       .  S
C850        C851   1.404       .  A
C851        C852   1.403       .  A
C851        N856   1.427       .  S
C852        C853   1.411       .  A
C852        H857   1.084       .  S
C853        C854   1.414       .  A
C854        N858   1.426       .  S
C855        C860   1.404       .  A
C855        C864   1.399       .  A
N856        O871   1.261       .  A
N856        O872   1.262       .  A
N858        O869   1.262       .  A
N858        O870   1.262       .  A
C860        C861   1.403       .  A
C860        N865   1.428       .  S
C861        C862   1.415       .  A
C861        H866   1.079       .  S
C862        C863   1.431       .  A
C863        C864   1.407       .  A
C863        N867   1.430       .  S
C864        H868   1.084       .  S
N865        O875   1.262       .  A
N865        O876   1.262       .  A
N867        O873   1.262       .  A
N867        O874   1.262       .  A
C877        C878   1.397       .  A
C877        C882   1.399       .  A
C877        H887   1.080       .  S
C878        C883   1.499       .  S
C878        C879   1.409       .  A
C879        C880   1.398       .  A
C879        N884   1.431       .  S
C880        C881   1.418       .  A
C880        H885   1.065       .  S
C881        C882   1.440       .  A
C882        N886   1.431       .  S
C883        C888   1.416       .  A
C883        C892   1.405       .  A
N884        O899   1.262       .  A
N884        O900   1.262       .  A
N886        O897   1.261       .  A
N886        O898   1.263       .  A
C888        C889   1.399       .  A
C888        N893   1.430       .  S
C889        C890   1.408       .  A
C889        H894   1.083       .  S
C890        C891   1.414       .  A
C891        C892   1.400       .  A
C891        N895   1.427       .  S
C892        H896   1.081       .  S
N893        O903   1.263       .  A
N893        O904   1.262       .  A
N895        O901   1.261       .  A
N895        O902   1.261       .  A
C905        C906   1.395       .  A
C905        C910   1.400       .  A
C905        H915   1.084       .  S
C906        C911   1.480       .  S
C906        C907   1.408       .  A
C907        C908   1.404       .  A
C907        N912   1.430       .  S
C908        C909   1.408       .  A
C908        H913   1.083       .  S
C909        C910   1.424       .  A
C910        N914   1.430       .  S
C911        C916   1.402       .  A
C911        C920   1.393       .  A
N912        O927   1.262       .  A
N912        O928   1.262       .  A
N914        O925   1.262       .  A
N914        O926   1.262       .  A
C916        C917   1.402       .  A
C916        N921   1.427       .  S
C917        C918   1.417       .  A
C917        H922   1.084       .  S
C918        C919   1.440       .  A
C919        C920   1.401       .  A
C919        N923   1.435       .  S
C920        H924   1.084       .  S
N921        O931   1.262       .  A
N921        O932   1.262       .  A
N923        O929   1.260       .  A
N923        O930   1.263       .  A
C933        C934   1.401       .  A
C933        C938   1.401       .  A
C933        H943   1.084       .  S
C934        C939   1.476       .  S
C934        C935   1.407       .  A
C935        C936   1.402       .  A
C935        N940   1.429       .  S
C936        C937   1.405       .  A
C936        H941   1.084       .  S
C937        C938   1.411       .  A
C938        N942   1.429       .  S
C939        C944   1.400       .  A
C939        C948   1.387       .  A
N940        O955   1.262       .  A
N940        O956   1.261       .  A
N942        O953   1.262       .  A
N942        O954   1.262       .  A
C944        C945   1.401       .  A
C944        N949   1.429       .  S
C945        C946   1.417       .  A
C945        H950   1.071       .  S
C946        C947   1.446       .  A
C947        C948   1.398       .  A
C947        N951   1.431       .  S
C948        H952   1.085       .  S
N949        O959   1.262       .  A
N949        O960   1.262       .  A
N951        O957   1.261       .  A
N951        O958   1.262       .  A
C961        C962   1.401       .  A
C961        C966   1.403       .  A
C961        H971   1.084       .  S
C962        C967   1.492       .  S
C962        C963   1.416       .  A
C963        C964   1.402       .  A
C963        N968   1.429       .  S
C964        C965   1.403       .  A
C964        H969   1.084       .  S
C965        C966   1.416       .  A
C966        N970   1.427       .  S
C967        C972   1.405       .  A
C967        C976   1.405       .  A
N968        O983   1.262       .  A
N968        O984   1.262       .  A
N970        O981   1.261       .  A
N970        O982   1.262       .  A
C972        C973   1.397       .  A
C972        N977   1.430       .  S
C973        C974   1.420       .  A
C973        H978   1.081       .  S
C974        C975   1.424       .  A
C975        C976   1.409       .  A
C975        N979   1.429       .  S
C976        H980   1.083       .  S
N977        O987   1.262       .  A
N977        O988   1.262       .  A
N979        O985   1.262       .  A
N979        O986   1.262       .  A
C989        C990   1.403       .  A
C989        C994   1.405       .  A
C989        H999   1.084       .  S
C990        C995   1.489       .  S
C990        C991   1.408       .  A
C991        C992   1.404       .  A
C991        N996   1.428       .  S
C992        C993   1.409       .  A
C992        H997   1.084       .  S
C993        C994   1.417       .  A
C994        N998   1.429       .  S
C995       C1000   1.404       .  A
C995       C1004   1.395       .  A
N996       O1011   1.262       .  A
N996       O1012   1.261       .  A
N998       O1009   1.262       .  A
N998       O1010   1.262       .  A
C1000      C1001   1.405       .  A
C1000      N1005   1.429       .  S
C1001      C1002   1.419       .  A
C1001      H1006   1.078       .  S
C1002      C1003   1.440       .  A
C1003      C1004   1.404       .  A
C1003      N1007   1.432       .  S
C1004      H1008   1.084       .  S
N1005      O1015   1.262       .  A
N1005      O1016   1.261       .  A
N1007      O1013   1.262       .  A
N1007      O1014   1.261       .  A
C1017      C1018   1.408       .  A
C1017      C1022   1.405       .  A
C1017      H1027   1.083       .  S
C1018      C1023   1.493       .  S
C1018      C1019   1.413       .  A
C1019      C1020   1.401       .  A
C1019      N1024   1.429       .  S
C1020      C1021   1.401       .  A
C1020      H1025   1.083       .  S
C1021      C1022   1.409       .  A
C1022      N1026   1.429       .  S
C1023      C1028   1.405       .  A
C1023      C1032   1.404       .  A
N1024      O1039   1.262       .  A
N1024      O1040   1.262       .  A
N1026      O1037   1.262       .  A
N1026      O1038   1.262       .  A
C1028      C1029   1.395       .  A
C1028      N1033   1.430       .  S
C1029      C1030   1.419       .  A
C1029      H1034   1.079       .  S
C1030      C1031   1.431       .  A
C1031      C1032   1.410       .  A
C1031      N1035   1.432       .  S
C1032      H1036   1.083       .  S
N1033      O1043   1.262       .  A
N1033      O1044   1.262       .  A
N1035      O1041   1.262       .  A
N1035      O1042   1.262       .  A
C1045      C1046   1.404       .  A
C1045      C1050   1.402       .  A
C1045      H1055   1.084       .  S
C1046      C1051   1.499       .  S
C1046      C1047   1.411       .  A
C1047      C1048   1.408       .  A
C1047      N1052   1.429       .  S
C1048      C1049   1.412       .  A
C1048      H1053   1.083       .  S
C1049      C1050   1.420       .  A
C1050      N1054   1.430       .  S
C1051      C1056   1.409       .  A
C1051      C1060   1.396       .  A
N1052      O1067   1.262       .  A
N1052      O1068   1.262       .  A
N1054      O1065   1.262       .  A
N1054      O1066   1.261       .  A
C1056      C1057   1.408       .  A
C1056      N1061   1.428       .  S
C1057      C1058   1.421       .  A
C1057      H1062   1.079       .  S
C1058      C1059   1.435       .  A
C1059      C1060   1.399       .  A
C1059      N1063   1.428       .  S
C1060      H1064   1.085       .  S
N1061      O1071   1.262       .  A
N1061      O1072   1.262       .  A
N1063      O1069   1.263       .  A
N1063      O1070   1.262   1_655  A
C1073      C1074   1.401       .  A
C1073      C1078   1.406       .  A
C1073      H1083   1.084       .  S
C1074      C1079   1.492       .  S
C1074      C1075   1.408       .  A
C1075      C1076   1.407       .  A
C1075      N1080   1.428       .  S
C1076      C1077   1.411       .  A
C1076      H1081   1.083       .  S
C1077      C1078   1.419       .  A
C1078      N1082   1.426       .  S
C1079      C1084   1.401       .  A
C1079      C1088   1.399       .  A
N1080      O1095   1.262       .  A
N1080      O1096   1.262       .  A
N1082      O1093   1.261       .  A
N1082      O1094   1.261       .  A
C1084      C1085   1.400       .  A
C1084      N1089   1.429       .  S
C1085      C1086   1.417       .  A
C1085      H1090   1.072       .  S
C1086      C1087   1.440       .  A
C1087      C1088   1.412       .  A
C1087      N1091   1.431       .  S
C1088      H1092   1.084       .  S
N1089      O1099   1.262       .  A
N1089      O1100   1.262       .  A
N1091      O1097   1.262       .  A
N1091      O1098   1.262       .  A
C1101      C1102   1.402       .  A
C1101      C1106   1.393       .  A
C1101      H1111   1.084       .  S
C1102      C1107   1.469       .  S
C1102      C1103   1.405       .  A
C1103      C1104   1.397       .  A
C1103      N1108   1.427       .  S
C1104      C1105   1.405       .  A
C1104      H1109   1.084       .  S
C1105      C1106   1.408       .  A
C1106      N1110   1.429       .  S
C1107      C1112   1.397       .  A
C1107      C1116   1.392       .  A
N1108      O1123   1.262       .  A
N1108      O1124   1.261       .  A
N1110      O1121   1.262       .  A
N1110      O1122   1.261       .  A
C1112      C1113   1.394       .  A
C1112      N1117   1.428       .  S
C1113      C1114   1.422       .  A
C1113      H1118   1.084       .  S
C1114      C1115   1.441       .  A
C1115      C1116   1.396       .  A
C1115      N1119   1.430       .  S
C1116      H1120   1.085       .  S
N1117      O1127   1.262       .  A
N1117      O1128   1.261       .  A
N1119      O1125   1.261       .  A
N1119      O1126   1.262       .  A
C1129      C1130   1.389       .  A
C1129      C1134   1.396       .  A
C1129      H1139   1.085       .  S
C1130      C1135   1.475       .  S
C1130      C1131   1.401   1_545  A
C1131      C1132   1.401       .  A
C1131      N1136   1.429       .  S
C1132      C1133   1.422   1_565  A
C1132      H1137   1.077       .  S
C1133      C1134   1.435       .  A
C1134      N1138   1.426       .  S
C1135      C1140   1.402   1_545  A
C1135      C1144   1.404       .  A
N1136      O1151   1.262       .  A
N1136      O1152   1.261       .  A
N1138      O1149   1.262       .  A
N1138      O1150   1.263       .  A
C1140      C1141   1.393       .  A
C1140      N1145   1.430       .  S
C1141      C1142   1.411   1_565  A
C1141      H1146   1.083       .  S
C1142      C1143   1.417       .  A
C1143      C1144   1.406       .  A
C1143      N1147   1.429       .  S
C1144      H1148   1.084       .  S
N1145      O1155   1.262       .  A
N1145      O1156   1.261       .  A
N1147      O1153   1.262       .  A
N1147      O1154   1.262   1_455  A
C1157      C1158   1.396       .  A
C1157      C1162   1.408       .  A
C1157      H1167   1.084       .  S
C1158      C1163   1.484       .  S
C1158      C1159   1.396       .  A
C1159      C1160   1.398       .  A
C1159      N1164   1.428       .  S
C1160      C1161   1.427       .  A
C1160      H1165   1.079       .  S
C1161      C1162   1.436       .  A
C1162      N1166   1.427       .  S
C1163      C1168   1.401       .  A
C1163      C1172   1.405       .  A
N1164      O1179   1.262       .  A
N1164      O1180   1.262       .  A
N1166      O1177   1.262       .  A
N1166      O1178   1.262       .  A
C1168      C1169   1.395       .  A
C1168      N1173   1.431   1_545  S
C1169      C1170   1.415       .  A
C1169      H1174   1.083   1_545  S
C1170      C1171   1.417       .  A
C1171      C1172   1.414       .  A
C1171      N1175   1.427       .  S
C1172      H1176   1.083       .  S
N1173      O1183   1.262       .  A
N1173      O1184   1.262       .  A
N1175      O1181   1.261       .  A
N1175      O1182   1.261       .  A
C1185      C1186   1.395       .  A
C1185      C1190   1.399       .  A
C1185      H1195   1.084       .  S
C1186      C1191   1.482       .  S
C1186      C1187   1.403       .  A
C1187      C1188   1.399       .  A
C1187      N1192   1.429       .  S
C1188      C1189   1.419       .  A
C1188      H1193   1.078       .  S
C1189      C1190   1.431       .  A
C1190      N1194   1.428       .  S
C1191      C1196   1.407       .  A
C1191      C1200   1.405       .  A
N1192      O1207   1.262       .  A
N1192      O1208   1.262       .  A
N1194      O1205   1.262       .  A
N1194      O1206   1.262       .  A
C1196      C1197   1.396       .  A
C1196      N1201   1.430       .  S
C1197      C1198   1.405       .  A
C1197      H1202   1.080       .  S
C1198      C1199   1.412       .  A
C1199      C1200   1.405       .  A
C1199      N1203   1.428       .  S
C1200      H1204   1.084       .  S
N1201      O1211   1.262       .  A
N1201      O1212   1.262       .  A
N1203      O1209   1.262       .  A
N1203      O1210   1.262       .  A
C1213      C1214   1.396       .  A
C1213      C1218   1.399       .  A
C1213      H1223   1.084       .  S
C1214      C1219   1.476       .  S
C1214      C1215   1.399       .  A
C1215      C1216   1.396       .  A
C1215      N1220   1.429       .  S
C1216      C1217   1.421       .  A
C1216      H1221   1.083       .  S
C1217      C1218   1.437       .  A
C1218      N1222   1.432       .  S
C1219      C1224   1.403       .  A
C1219      C1228   1.406       .  A
N1220      O1235   1.262       .  A
N1220      O1236   1.262       .  A
N1222      O1233   1.260       .  A
N1222      O1234   1.262       .  A
C1224      C1225   1.386       .  A
C1224      N1229   1.430       .  S
C1225      C1226   1.410       .  A
C1225      H1230   1.084       .  S
C1226      C1227   1.414       .  A
C1227      C1228   1.408       .  A
C1227      N1231   1.428       .  S
C1228      H1232   1.083       .  S
N1229      O1239   1.262       .  A
N1229      O1240   1.262       .  A
N1231      O1237   1.262       .  A
N1231      O1238   1.262       .  A
C1241      C1242   1.405       .  A
C1241      C1246   1.408       .  A
C1241      H1251   1.083       .  S
C1242      C1247   1.500       .  S
C1242      C1243   1.416       .  A
C1243      C1244   1.403       .  A
C1243      N1248   1.429       .  S
C1244      C1245   1.406       .  A
C1244      H1249   1.084       .  S
C1245      C1246   1.418       .  A
C1246      N1250   1.429       .  S
C1247      C1252   1.412       .  A
C1247      C1256   1.393       .  A
N1248      O1263   1.262       .  A
N1248      O1264   1.262       .  A
N1250      O1261   1.262       .  A
N1250      O1262   1.262       .  A
C1252      C1253   1.411       .  A
C1252      N1257   1.427       .  S
C1253      C1254   1.417       .  A
C1253      H1258   1.077       .  S
C1254      C1255   1.434       .  A
C1255      C1256   1.399       .  A
C1255      N1259   1.425       .  S
C1256      H1260   1.083       .  S
N1257      O1267   1.262       .  A
N1257      O1268   1.261       .  A
N1259      O1265   1.263       .  A
N1259      O1266   1.263       .  A
C1269      C1270   1.396       .  A
C1269      C1274   1.399       .  A
C1269      H1279   1.083       .  S
C1270      C1275   1.480       .  S
C1270      C1271   1.405       .  A
C1271      C1272   1.399       .  A
C1271      N1276   1.431       .  S
C1272      C1273   1.410       .  A
C1272      H1277   1.071       .  S
C1273      C1274   1.434       .  A
C1274      N1278   1.434       .  S
C1275      C1280   1.408       .  A
C1275      C1284   1.407       .  A
N1276      O1291   1.262       .  A
N1276      O1292   1.261       .  A
N1278      O1289   1.262       .  A
N1278      O1290   1.261       .  A
C1280      C1281   1.392       .  A
C1280      N1285   1.431       .  S
C1281      C1282   1.406       .  A
C1281      H1286   1.085       .  S
C1282      C1283   1.406       .  A
C1283      C1284   1.404       .  A
C1283      N1287   1.428       .  S
C1284      H1288   1.083       .  S
N1285      O1295   1.262       .  A
N1285      O1296   1.262       .  A
N1287      O1293   1.262       .  A
N1287      O1294   1.262       .  A
C1297      C1298   1.392       .  A
C1297      C1302   1.400       .  A
C1297      H1307   1.084       .  S
C1298      C1303   1.479       .  S
C1298      C1299   1.406   1_565  A
C1299      C1300   1.402       .  A
C1299      N1304   1.430       .  S
C1300      C1301   1.418       .  A
C1300      H1305   1.077       .  S
C1301      C1302   1.436   1_545  A
C1302      N1306   1.432       .  S
C1303      C1308   1.405   1_565  A
C1303      C1312   1.407       .  A
N1304      O1319   1.262       .  A
N1304      O1320   1.261       .  A
N1306      O1317   1.262       .  A
N1306      O1318   1.261       .  A
C1308      C1309   1.394       .  A
C1308      N1313   1.429       .  S
C1309      C1310   1.402   1_545  A
C1309      H1314   1.082       .  S
C1310      C1311   1.409       .  A
C1311      C1312   1.408       .  A
C1311      N1315   1.429       .  S
C1312      H1316   1.084       .  S
N1313      O1323   1.261       .  A
N1313      O1324   1.262       .  A
N1315      O1321   1.262       .  A
N1315      O1322   1.262       .  A
C1325      C1326   1.404   1_545  A
C1325      C1330   1.404       .  A
C1325      H1335   1.084       .  S
C1326      C1331   1.476       .  S
C1326      C1327   1.406       .  A
C1327      C1328   1.395       .  A
C1327      N1332   1.428       .  S
C1328      C1329   1.400       .  A
C1328      H1333   1.084       .  S
C1329      C1330   1.411   1_565  A
C1330      N1334   1.430       .  S
C1331      C1336   1.400       .  A
C1331      C1340   1.396   1_565  A
N1332      O1347   1.262       .  A
N1332      O1348   1.262       .  A
N1334      O1345   1.261   1_645  A
N1334      O1346   1.262       .  A
C1336      C1337   1.398       .  A
C1336      N1341   1.428       .  S
C1337      C1338   1.420   1_565  A
C1337      H1342   1.077       .  S
C1338      C1339   1.431       .  A
C1339      C1340   1.399       .  A
C1339      N1343   1.432       .  S
C1340      H1344   1.084       .  S
N1341      O1351   1.262       .  A
N1341      O1352   1.262       .  A
N1343      O1349   1.262       .  A
N1343      O1350   1.262       .  A
C1353      C1354   1.409       .  A
C1353      C1358   1.409       .  A
C1353      H1363   1.084       .  S
C1354      C1359   1.492       .  S
C1354      C1355   1.410       .  A
C1355      C1356   1.400       .  A
C1355      N1360   1.428       .  S
C1356      C1357   1.404       .  A
C1356      H1361   1.084       .  S
C1357      C1358   1.409       .  A
C1358      N1362   1.430       .  S
C1359      C1364   1.403       .  A
C1359      C1368   1.395       .  A
N1360      O1375   1.262       .  A
N1360      O1376   1.261       .  A
N1362      O1373   1.262       .  A
N1362      O1374   1.262       .  A
C1364      C1365   1.403       .  A
C1364      N1369   1.429       .  S
C1365      C1366   1.421       .  A
C1365      H1370   1.083       .  S
C1366      C1367   1.442       .  A
C1367      C1368   1.409       .  A
C1367      N1371   1.428       .  S
C1368      H1372   1.085       .  S
N1369      O1379   1.262       .  A
N1369      O1380   1.262       .  A
N1371      O1377   1.261       .  A
N1371      O1378   1.263       .  A
C1381      C1382   1.404       .  A
C1381      C1386   1.402       .  A
C1381      H1391   1.084       .  S
C1382      C1387   1.499       .  S
C1382      C1383   1.416       .  A
C1383      C1384   1.410       .  A
C1383      N1388   1.428       .  S
C1384      C1385   1.403       .  A
C1384      H1389   1.084       .  S
C1385      C1386   1.411       .  A
C1386      N1390   1.429       .  S
C1387      C1392   1.404       .  A
C1387      C1396   1.404       .  A
N1388      O1403   1.262       .  A
N1388      O1404   1.262       .  A
N1390      O1401   1.261       .  A
N1390      O1402   1.262       .  A
C1392      C1393   1.398       .  A
C1392      N1397   1.430       .  S
C1393      C1394   1.422       .  A
C1393      H1398   1.078       .  S
C1394      C1395   1.432       .  A
C1395      C1396   1.414       .  A
C1395      N1399   1.432       .  S
C1396      H1400   1.083       .  S
N1397      O1407   1.262       .  A
N1397      O1408   1.262       .  A
N1399      O1405   1.260       .  A
N1399      O1406   1.262       .  A
C1409      C1410   1.397       .  A
C1409      C1414   1.404       .  A
C1409      H1419   1.084       .  S
C1410      C1415   1.480       .  S
C1410      C1411   1.402       .  A
C1411      C1412   1.393       .  A
C1411      N1416   1.430       .  S
C1412      C1413   1.418       .  A
C1412      H1417   1.084       .  S
C1413      C1414   1.437       .  A
C1414      N1418   1.432       .  S
C1415      C1420   1.406       .  A
C1415      C1424   1.404       .  A
N1416      O1431   1.262       .  A
N1416      O1432   1.262       .  A
N1418      O1429   1.262       .  A
N1418      O1430   1.261       .  A
C1420      C1421   1.395       .  A
C1420      N1425   1.430       .  S
C1421      C1422   1.407       .  A
C1421      H1426   1.084       .  S
C1422      C1423   1.415       .  A
C1423      C1424   1.404       .  A
C1423      N1427   1.429       .  S
C1424      H1428   1.084       .  S
N1425      O1435   1.262       .  A
N1425      O1436   1.262       .  A
N1427      O1433   1.262       .  A
N1427      O1434   1.262       .  A
C1437      C1438   1.394       .  A
C1437      C1442   1.396       .  A
C1437      H1447   1.084       .  S
C1438      C1443   1.476       .  S
C1438      C1439   1.400       .  A
C1439      C1440   1.398       .  A
C1439      N1444   1.429       .  S
C1440      C1441   1.423       .  A
C1440      H1445   1.079       .  S
C1441      C1442   1.431       .  A
C1442      N1446   1.428       .  S
C1443      C1448   1.404       .  A
C1443      C1452   1.406       .  A
N1444      O1459   1.262       .  A
N1444      O1460   1.262       .  A
N1446      O1457   1.262       .  A
N1446      O1458   1.263       .  A
C1448      C1449   1.389       .  A
C1448      N1453   1.430       .  S
C1449      C1450   1.405       .  A
C1449      H1454   1.084       .  S
C1450      C1451   1.411       .  A
C1451      C1452   1.407       .  A
C1451      N1455   1.428       .  S
C1452      H1456   1.084       .  S
N1453      O1463   1.262       .  A
N1453      O1464   1.262       .  A
N1455      O1461   1.262       .  A
N1455      O1462   1.261       .  A
C1465      C1466   1.402       .  A
C1465      C1470   1.401       .  A
C1465      H1475   1.083       .  S
C1466      C1471   1.501       .  S
C1466      C1467   1.415   1_655  A
C1467      C1468   1.410       .  A
C1467      N1472   1.429       .  S
C1468      C1469   1.410   1_455  A
C1468      H1473   1.084       .  S
C1469      C1470   1.412       .  A
C1470      N1474   1.425       .  S
C1471      C1476   1.409       .  A
C1471      C1480   1.402       .  A
N1472      O1487   1.262       .  A
N1472      O1488   1.261       .  A
N1474      O1485   1.262       .  A
N1474      O1486   1.261       .  A
C1476      C1477   1.398       .  A
C1476      N1481   1.431       .  S
C1477      C1478   1.415       .  A
C1477      H1482   1.074       .  S
C1478      C1479   1.436       .  A
C1479      C1480   1.412       .  A
C1479      N1483   1.432       .  S
C1480      H1484   1.082       .  S
N1481      O1491   1.262       .  A
N1481      O1492   1.262   1_655  A
N1483      O1489   1.262       .  A
N1483      O1490   1.261   1_655  A
C1493      C1494   1.398   1_655  A
C1493      C1498   1.403       .  A
C1493      H1503   1.084       .  S
C1494      C1499   1.490       .  S
C1494      C1495   1.407       .  A
C1495      C1496   1.403       .  A
C1495      N1500   1.430       .  S
C1496      C1497   1.422   1_455  A
C1496      H1501   1.078       .  S
C1497      C1498   1.431       .  A
C1498      N1502   1.431       .  S
C1499      C1504   1.413       .  A
C1499      C1508   1.403   1_455  A
N1500      O1515   1.262       .  A
N1500      O1516   1.262       .  A
N1502      O1513   1.262       .  A
N1502      O1514   1.262       .  A
C1504      C1505   1.404       .  A
C1504      N1509   1.428       .  S
C1505      C1506   1.404   1_455  A
C1505      H1510   1.084       .  S
C1506      C1507   1.412       .  A
C1507      C1508   1.402       .  A
C1507      N1511   1.426       .  S
C1508      H1512   1.084       .  S
N1509      O1519   1.262       .  A
N1509      O1520   1.262       .  A
N1511      O1517   1.262       .  A
N1511      O1518   1.260       .  A
C1521      C1522   1.398       .  A
C1521      C1526   1.396       .  A
C1521      H1531   1.084       .  S
C1522      C1527   1.471       .  S
C1522      C1523   1.412       .  A
C1523      C1524   1.396       .  A
C1523      N1528   1.429       .  S
C1524      C1525   1.399       .  A
C1524      H1529   1.084       .  S
C1525      C1526   1.412       .  A
C1526      N1530   1.428       .  S
C1527      C1532   1.400       .  A
C1527      C1536   1.391       .  A
N1528      O1543   1.262       .  A
N1528      O1544   1.262       .  A
N1530      O1541   1.261       .  A
N1530      O1542   1.262       .  A
C1532      C1533   1.396       .  A
C1532      N1537   1.430       .  S
C1533      C1534   1.421       .  A
C1533      H1538   1.084       .  S
C1534      C1535   1.440       .  A
C1535      C1536   1.401       .  A
C1535      N1539   1.431       .  S
C1536      H1540   1.084       .  S
N1537      O1547   1.261       .  A
N1537      O1548   1.262       .  A
N1539      O1545   1.260       .  A
N1539      O1546   1.262       .  A
C1549      C1550   1.394       .  A
C1549      C1554   1.403       .  A
C1549      H1559   1.084       .  S
C1550      C1555   1.467       .  S
C1550      C1551   1.397       .  A
C1551      C1552   1.389       .  A
C1551      N1556   1.429       .  S
C1552      C1553   1.420       .  A
C1552      H1557   1.084       .  S
C1553      C1554   1.437       .  A
C1554      N1558   1.430       .  S
C1555      C1560   1.407       .  A
C1555      C1564   1.402       .  A
N1556      O1571   1.262       .  A
N1556      O1572   1.262       .  A
N1558      O1569   1.261       .  A
N1558      O1570   1.262       .  A
C1560      C1561   1.392       .  A
C1560      N1565   1.428       .  S
C1561      C1562   1.397       .  A
C1561      H1566   1.084       .  S
C1562      C1563   1.407       .  A
C1563      C1564   1.397       .  A
C1563      N1567   1.430       .  S
C1564      H1568   1.084       .  S
N1565      O1575   1.262       .  A
N1565      O1576   1.261       .  A
N1567      O1573   1.262       .  A
N1567      O1574   1.262       .  A
C1577      C1578   1.406       .  A
C1577      C1582   1.404       .  A
C1577      H1587   1.083       .  S
C1578      C1583   1.492       .  S
C1578      C1579   1.414       .  A
C1579      C1580   1.402       .  A
C1579      N1584   1.429       .  S
C1580      C1581   1.403       .  A
C1580      H1585   1.084       .  S
C1581      C1582   1.409       .  A
C1582      N1586   1.429       .  S
C1583      C1588   1.402       .  A
C1583      C1592   1.400       .  A
N1584      O1599   1.262       .  A
N1584      O1600   1.262       .  A
N1586      O1597   1.261       .  A
N1586      O1598   1.262       .  A
C1588      C1589   1.397       .  A
C1588      N1593   1.430       .  S
C1589      C1590   1.419       .  A
C1589      H1594   1.080       .  S
C1590      C1591   1.441       .  A
C1591      C1592   1.410       .  A
C1591      N1595   1.434       .  S
C1592      H1596   1.084       .  S
N1593      O1603   1.262       .  A
N1593      O1604   1.262       .  A
N1595      O1601   1.262       .  A
N1595      O1602   1.262       .  A
C1605      C1606   1.393       .  A
C1605      C1610   1.395       .  A
C1605      H1615   1.085       .  S
C1606      C1611   1.475       .  S
C1606      C1607   1.398       .  A
C1607      C1608   1.396       .  A
C1607      N1612   1.429       .  S
C1608      C1609   1.420       .  A
C1608      H1613   1.074       .  S
C1609      C1610   1.441       .  A
C1610      N1614   1.433       .  S
C1611      C1616   1.405       .  A
C1611      C1620   1.403       .  A
N1612      O1627   1.262       .  A
N1612      O1628   1.262       .  A
N1614      O1625   1.262       .  A
N1614      O1626   1.262       .  A
C1616      C1617   1.389       .  A
C1616      N1621   1.429       .  S
C1617      C1618   1.406       .  A
C1617      H1622   1.083       .  S
C1618      C1619   1.419       .  A
C1619      C1620   1.404       .  A
C1619      N1623   1.430       .  S
C1620      H1624   1.084       .  S
N1621      O1631   1.262       .  A
N1621      O1632   1.261       .  A
N1623      O1629   1.262       .  A
N1623      O1630   1.262   1_455  A
C1633      C1634   1.400       .  A
C1633      C1638   1.396       .  A
C1633      H1643   1.084       .  S
C1634      C1639   1.474       .  S
C1634      C1635   1.404       .  A
C1635      C1636   1.398       .  A
C1635      N1640   1.428       .  S
C1636      C1637   1.411       .  A
C1636      H1641   1.083       .  S
C1637      C1638   1.416       .  A
C1638      N1642   1.429       .  S
C1639      C1644   1.398       .  A
C1639      C1648   1.400       .  A
N1640      O1655   1.262       .  A
N1640      O1656   1.262       .  A
N1642      O1653   1.262       .  A
N1642      O1654   1.262       .  A
C1644      C1645   1.385       .  A
C1644      N1649   1.431       .  S
C1645      C1646   1.420       .  A
C1645      H1650   1.083       .  S
C1646      C1647   1.437       .  A
C1647      C1648   1.410       .  A
C1647      N1651   1.434       .  S
C1648      H1652   1.084       .  S
N1649      O1659   1.262       .  A
N1649      O1660   1.261       .  A
N1651      O1657   1.260       .  A
N1651      O1658   1.261       .  A
C1661      C1662   1.401       .  A
C1661      C1666   1.404       .  A
C1661      H1671   1.084       .  S
C1662      C1667   1.496       .  S
C1662      C1663   1.414       .  A
C1663      C1664   1.408       .  A
C1663      N1668   1.430       .  S
C1664      C1665   1.411       .  A
C1664      H1669   1.083       .  S
C1665      C1666   1.421       .  A
C1666      N1670   1.428       .  S
C1667      C1672   1.404       .  A
C1667      C1676   1.402       .  A
N1668      O1683   1.262       .  A
N1668      O1684   1.262       .  A
N1670      O1681   1.262       .  A
N1670      O1682   1.262       .  A
C1672      C1673   1.400       .  A
C1672      N1677   1.430       .  S
C1673      C1674   1.420       .  A
C1673      H1678   1.076       .  S
C1674      C1675   1.437       .  A
C1675      C1676   1.411       .  A
C1675      N1679   1.431       .  S
C1676      H1680   1.084       .  S
N1677      O1687   1.262       .  A
N1677      O1688   1.262       .  A
N1679      O1685   1.262       .  A
N1679      O1686   1.262       .  A
C1689      C1690   1.393       .  A
C1689      C1694   1.391       .  A
C1689      H1699   1.082       .  S
C1690      C1695   1.490       .  S
C1690      C1691   1.416       .  A
C1691      C1692   1.403       .  A
C1691      N1696   1.429       .  S
C1692      C1693   1.408       .  A
C1692      H1697   1.077       .  S
C1693      C1694   1.436       .  A
C1694      N1698   1.432       .  S
C1695      C1700   1.420       .  A
C1695      C1704   1.397       .  A
N1696      O1711   1.262       .  A
N1696      O1712   1.262       .  A
N1698      O1709   1.262       .  A
N1698      O1710   1.262       .  A
C1700      C1701   1.396       .  A
C1700      N1705   1.429       .  S
C1701      C1702   1.400       .  A
C1701      H1706   1.084       .  S
C1702      C1703   1.421       .  A
C1703      C1704   1.395       .  A
C1703      N1707   1.429       .  S
C1704      H1708   1.082       .  S
N1705      O1715   1.263       .  A
N1705      O1716   1.261       .  A
N1707      O1713   1.260       .  A
N1707      O1714   1.262       .  A
C1717      C1718   1.402       .  A
C1717      C1722   1.399       .  A
C1717      H1727   1.083       .  S
C1718      C1723   1.476       .  S
C1718      C1719   1.413       .  A
C1719      C1720   1.391       .  A
C1719      N1724   1.430       .  S
C1720      C1721   1.397       .  A
C1720      H1725   1.085       .  S
C1721      C1722   1.411       .  A
C1722      N1726   1.429       .  S
C1723      C1728   1.401       .  A
C1723      C1732   1.391       .  A
N1724      O1739   1.262       .  A
N1724      O1740   1.262       .  A
N1726      O1737   1.262       .  A
N1726      O1738   1.262       .  A
C1728      C1729   1.397       .  A
C1728      N1733   1.429       .  S
C1729      C1730   1.418       .  A
C1729      H1734   1.083       .  S
C1730      C1731   1.445       .  A
C1731      C1732   1.395       .  A
C1731      N1735   1.434       .  S
C1732      H1736   1.084       .  S
N1733      O1743   1.262       .  A
N1733      O1744   1.262       .  A
N1735      O1741   1.262       .  A
N1735      O1742   1.261       .  A
C1745      C1746   1.406       .  A
C1745      C1750   1.402       .  A
C1745      H1755   1.083       .  S
C1746      C1751   1.483       .  S
C1746      C1747   1.409   1_655  A
C1747      C1748   1.396       .  A
C1747      N1752   1.429       .  S
C1748      C1749   1.404   1_455  A
C1748      H1753   1.084       .  S
C1749      C1750   1.408       .  A
C1750      N1754   1.428       .  S
C1751      C1756   1.401       .  A
C1751      C1760   1.395   1_655  A
N1752      O1767   1.262       .  A
N1752      O1768   1.262       .  A
N1754      O1765   1.262       .  A
N1754      O1766   1.261       .  A
C1756      C1757   1.397       .  A
C1756      N1761   1.429       .  S
C1757      C1758   1.423       .  A
C1757      H1762   1.077       .  S
C1758      C1759   1.433   1_655  A
C1759      C1760   1.401       .  A
C1759      N1763   1.427       .  S
C1760      H1764   1.084       .  S
N1761      O1771   1.262       .  A
N1761      O1772   1.262       .  A
N1763      O1769   1.262       .  A
N1763      O1770   1.262       .  A
C1773      C1774   1.403       .  A
C1773      C1778   1.401       .  A
C1773      H1783   1.083       .  S
C1774      C1779   1.494       .  S
C1774      C1775   1.413   1_655  A
C1775      C1776   1.404       .  A
C1775      N1780   1.429       .  S
C1776      C1777   1.407   1_455  A
C1776      H1781   1.084       .  S
C1777      C1778   1.414       .  A
C1778      N1782   1.427       .  S
C1779      C1784   1.403       .  A
C1779      C1788   1.402   1_655  A
N1780      O1795   1.262       .  A
N1780      O1796   1.262       .  A
N1782      O1793   1.262       .  A
N1782      O1794   1.261       .  A
C1784      C1785   1.394       .  A
C1784      N1789   1.430       .  S
C1785      C1786   1.416       .  A
C1785      H1790   1.076       .  S
C1786      C1787   1.438   1_655  A
C1787      C1788   1.410       .  A
C1787      N1791   1.431       .  S
C1788      H1792   1.083       .  S
N1789      O1799   1.262       .  A
N1789      O1800   1.262       .  A
N1791      O1797   1.262       .  A
N1791      O1798   1.262       .  A
C1801      C1802   1.400       .  A
C1801      C1806   1.400       .  A
C1801      H1811   1.084       .  S
C1802      C1807   1.467       .  S
C1802      C1803   1.402       .  A
C1803      C1804   1.393       .  A
C1803      N1808   1.428       .  S
C1804      C1805   1.405       .  A
C1804      H1809   1.084       .  S
C1805      C1806   1.416       .  A
C1806      N1810   1.430       .  S
C1807      C1812   1.395       .  A
C1807      C1816   1.395       .  A
N1808      O1823   1.262       .  A
N1808      O1824   1.262       .  A
N1810      O1821   1.262       .  A
N1810      O1822   1.262   1_455  A
C1812      C1813   1.387       .  A
C1812      N1817   1.430       .  S
C1813      C1814   1.414       .  A
C1813      H1818   1.075       .  S
C1814      C1815   1.439       .  A
C1815      C1816   1.405       .  A
C1815      N1819   1.434       .  S
C1816      H1820   1.084       .  S
N1817      O1827   1.262       .  A
N1817      O1828   1.262       .  A
N1819      O1825   1.262       .  A
N1819      O1826   1.262       .  A
C1829      C1830   1.402       .  A
C1829      C1834   1.412       .  A
C1829      H1839   1.084       .  S
C1830      C1835   1.483       .  S
C1830      C1831   1.397       .  A
C1831      C1832   1.390       .  A
C1831      N1836   1.430       .  S
C1832      C1833   1.420       .  A
C1832      H1837   1.074       .  S
C1833      C1834   1.433       .  A
C1834      N1838   1.429       .  S
C1835      C1840   1.409       .  A
C1835      C1844   1.398       .  A
N1836      O1851   1.262       .  A
N1836      O1852   1.262       .  A
N1838      O1849   1.262       .  A
N1838      O1850   1.262       .  A
C1840      C1841   1.404       .  A
C1840      N1845   1.429       .  S
C1841      C1842   1.407       .  A
C1841      H1846   1.083       .  S
C1842      C1843   1.422       .  A
C1843      C1844   1.402       .  A
C1843      N1847   1.429       .  S
C1844      H1848   1.084       .  S
N1845      O1855   1.262       .  A
N1845      O1856   1.261       .  A
N1847      O1853   1.262       .  A
N1847      O1854   1.262       .  A
C1857      C1858   1.394       .  A
C1857      C1862   1.400       .  A
C1857      H1867   1.084       .  S
C1858      C1863   1.470       .  S
C1858      C1859   1.397       .  A
C1859      C1860   1.391       .  A
C1859      N1864   1.430       .  S
C1860      C1861   1.420       .  A
C1860      H1865   1.075       .  S
C1861      C1862   1.436       .  A
C1862      N1866   1.431       .  S
C1863      C1868   1.404       .  A
C1863      C1872   1.398       .  A
N1864      O1879   1.262       .  A
N1864      O1880   1.262       .  A
N1866      O1877   1.262       .  A
N1866      O1878   1.261       .  A
C1868      C1869   1.395       .  A
C1868      N1873   1.429       .  S
C1869      C1870   1.408       .  A
C1869      H1874   1.083       .  S
C1870      C1871   1.420       .  A
C1871      C1872   1.396       .  A
C1871      N1875   1.430       .  S
C1872      H1876   1.084       .  S
N1873      O1883   1.262       .  A
N1873      O1884   1.262       .  A
N1875      O1881   1.262       .  A
N1875      O1882   1.262       .  A
C1885      C1886   1.408       .  A
C1885      C1890   1.409       .  A
C1885      H1895   1.082       .  S
C1886      C1891   1.507       .  S
C1886      C1887   1.421       .  A
C1887      C1888   1.403       .  A
C1887      N1892   1.431       .  S
C1888      C1889   1.400       .  A
C1888      H1893   1.084       .  S
C1889      C1890   1.413       .  A
C1890      N1894   1.429       .  S
C1891      C1896   1.411       .  A
C1891      C1900   1.393       .  A
N1892      O1907   1.262       .  A
N1892      O1908   1.262       .  A
N1894      O1905   1.262       .  A
N1894      O1906   1.262       .  A
C1896      C1897   1.410       .  A
C1896      N1901   1.428       .  S
C1897      C1898   1.416       .  A
C1897      H1902   1.074       .  S
C1898      C1899   1.446       .  A
C1899      C1900   1.401       .  A
C1899      N1903   1.433       .  S
C1900      H1904   1.083       .  S
N1901      O1911   1.262       .  A
N1901      O1912   1.261       .  A
N1903      O1909   1.261       .  A
N1903      O1910   1.262       .  A
C1913      C1914   1.406       .  A
C1913      C1918   1.404       .  A
C1913      H1923   1.083       .  S
C1914      C1919   1.492       .  S
C1914      C1915   1.413       .  A
C1915      C1916   1.403       .  A
C1915      N1920   1.430       .  S
C1916      C1917   1.406       .  A
C1916      H1921   1.084       .  S
C1917      C1918   1.411       .  A
C1918      N1922   1.428       .  S
C1919      C1924   1.410       .  A
C1919      C1928   1.396       .  A
N1920      O1935   1.262       .  A
N1920      O1936   1.262       .  A
N1922      O1933   1.262       .  A
N1922      O1934   1.262   1_455  A
C1924      C1925   1.405       .  A
C1924      N1929   1.429       .  S
C1925      C1926   1.413       .  A
C1925      H1930   1.078       .  S
C1926      C1927   1.433       .  A
C1927      C1928   1.402       .  A
C1927      N1931   1.429       .  S
C1928      H1932   1.083       .  S
N1929      O1939   1.262       .  A
N1929      O1940   1.262       .  A
N1931      O1937   1.262       .  A
N1931      O1938   1.262       .  A
C1941      C1942   1.405       .  A
C1941      C1946   1.395       .  A
C1941      H1951   1.084       .  S
C1942      C1947   1.473       .  S
C1942      C1943   1.412       .  A
C1943      C1944   1.395       .  A
C1943      N1948   1.430       .  S
C1944      C1945   1.397       .  A
C1944      H1949   1.081       .  S
C1945      C1946   1.404       .  A
C1946      N1950   1.428       .  S
C1947      C1952   1.404       .  A
C1947      C1956   1.391       .  A
N1948      O1963   1.262       .  A
N1948      O1964   1.262       .  A
N1950      O1961   1.261       .  A
N1950      O1962   1.262       .  A
C1952      C1953   1.398       .  A
C1952      N1957   1.429       .  S
C1953      C1954   1.416       .  A
C1953      H1958   1.083       .  S
C1954      C1955   1.437       .  A
C1955      C1956   1.389       .  A
C1955      N1959   1.434   1_565  S
C1956      H1960   1.085       .  S
N1957      O1967   1.262       .  A
N1957      O1968   1.262       .  A
N1959      O1965   1.260       .  A
N1959      O1966   1.260       .  A
C1969      C1970   1.401       .  A
C1969      C1974   1.403       .  A
C1969      H1979   1.084       .  S
C1970      C1975   1.481       .  S
C1970      C1971   1.411       .  A
C1971      C1972   1.398       .  A
C1971      N1976   1.430       .  S
C1972      C1973   1.403       .  A
C1972      H1977   1.084       .  S
C1973      C1974   1.414       .  A
C1974      N1978   1.428       .  S
C1975      C1980   1.401       .  A
C1975      C1984   1.393       .  A
N1976      O1991   1.262       .  A
N1976      O1992   1.262       .  A
N1978      O1989   1.262       .  A
N1978      O1990   1.261       .  A
C1980      C1981   1.399       .  A
C1980      N1985   1.428       .  S
C1981      C1982   1.419       .  A
C1981      H1986   1.078       .  S
C1982      C1983   1.443       .  A
C1983      C1984   1.398       .  A
C1983      N1987   1.432       .  S
C1984      H1988   1.084       .  S
N1985      O1995   1.262       .  A
N1985      O1996   1.262       .  A
N1987      O1993   1.262       .  A
N1987      O1994   1.262       .  A
C1997      C1998   1.412       .  A
C1997      C2002   1.400       .  A
C1997      H2007   1.084       .  S
C1998      C2003   1.502       .  S
C1998      C1999   1.417       .  A
C1999      C2000   1.405       .  A
C1999      N2004   1.429       .  S
C2000      C2001   1.404       .  A
C2000      H2005   1.084       .  S
C2001      C2002   1.405       .  A
C2002      N2006   1.429       .  S
C2003      C2008   1.414       .  A
C2003      C2012   1.398       .  A
N2004      O2019   1.262       .  A
N2004      O2020   1.263       .  A
N2006      O2017   1.262       .  A
N2006      O2018   1.262       .  A
C2008      C2009   1.409       .  A
C2008      N2013   1.429       .  S
C2009      C2010   1.418       .  A
C2009      H2014   1.083       .  S
C2010      C2011   1.437       .  A
C2011      C2012   1.396       .  A
C2011      N2015   1.435   1_565  S
C2012      H2016   1.084       .  S
N2013      O2023   1.262       .  A
N2013      O2024   1.263       .  A
N2015      O2021   1.260       .  A
N2015      O2022   1.262       .  A
C2025      C2026   1.396       .  A
C2025      C2030   1.403       .  A
C2025      H2035   1.084       .  S
C2026      C2031   1.486       .  S
C2026      C2027   1.404       .  A
C2027      C2028   1.400       .  A
C2027      N2032   1.429       .  S
C2028      C2029   1.416       .  A
C2028      H2033   1.075       .  S
C2029      C2030   1.438       .  A
C2030      N2034   1.437       .  S
C2031      C2036   1.410       .  A
C2031      C2040   1.400       .  A
N2032      O2047   1.262       .  A
N2032      O2048   1.262       .  A
N2034      O2045   1.263       .  A
N2034      O2046   1.261       .  A
C2036      C2037   1.404       .  A
C2036      N2041   1.429       .  S
C2037      C2038   1.408       .  A
C2037      H2042   1.084       .  S
C2038      C2039   1.420       .  A
C2039      C2040   1.401       .  A
C2039      N2043   1.429       .  S
C2040      H2044   1.084       .  S
N2041      O2051   1.262       .  A
N2041      O2052   1.262       .  A
N2043      O2049   1.262       .  A
N2043      O2050   1.261       .  A
C2053      C2054   1.399       .  A
C2053      C2058   1.396       .  A
C2053      H2063   1.084       .  S
C2054      C2059   1.490       .  S
C2054      C2055   1.415       .  A
C2055      C2056   1.407       .  A
C2055      N2060   1.428       .  S
C2056      C2057   1.402       .  A
C2056      H2061   1.084       .  S
C2057      C2058   1.412       .  A
C2058      N2062   1.427       .  S
C2059      C2064   1.409       .  A
C2059      C2068   1.396       .  A
N2060      O2075   1.262       .  A
N2060      O2076   1.262       .  A
N2062      O2073   1.260       .  A
N2062      O2074   1.260       .  A
C2064      C2065   1.398       .  A
C2064      N2069   1.430       .  S
C2065      C2066   1.415       .  A
C2065      H2070   1.077       .  S
C2066      C2067   1.437       .  A
C2067      C2068   1.403       .  A
C2067      N2071   1.434       .  S
C2068      H2072   1.084       .  S
N2069      O2079   1.262       .  A
N2069      O2080   1.262       .  A
N2071      O2077   1.261       .  A
N2071      O2078   1.262       .  A
C2081      C2082   1.399       .  A
C2081      C2086   1.410       .  A
C2081      H2091   1.084       .  S
C2082      C2087   1.484       .  S
C2082      C2083   1.401       .  A
C2083      C2084   1.396       .  A
C2083      N2088   1.431       .  S
C2084      C2085   1.415       .  A
C2084      H2089   1.072       .  S
C2085      C2086   1.436       .  A
C2086      N2090   1.433       .  S
C2087      C2092   1.407       .  A
C2087      C2096   1.397       .  A
N2088      O2103   1.262       .  A
N2088      O2104   1.262       .  A
N2090      O2101   1.262       .  A
N2090      O2102   1.262       .  A
C2092      C2093   1.405       .  A
C2092      N2097   1.427       .  S
C2093      C2094   1.407       .  A
C2093      H2098   1.083       .  S
C2094      C2095   1.420       .  A
C2095      C2096   1.399       .  A
C2095      N2099   1.427       .  S
C2096      H2100   1.084       .  S
N2097      O2107   1.262       .  A
N2097      O2108   1.261       .  A
N2099      O2105   1.261       .  A
N2099      O2106   1.262       .  A
C2109      C2110   1.400       .  A
C2109      C2114   1.407       .  A
C2109      H2119   1.084       .  S
C2110      C2115   1.489       .  S
C2110      C2111   1.400       .  A
C2111      C2112   1.401       .  A
C2111      N2116   1.429       .  S
C2112      C2113   1.420       .  A
C2112      H2117   1.073       .  S
C2113      C2114   1.437       .  A
C2114      N2118   1.432       .  S
C2115      C2120   1.414       .  A
C2115      C2124   1.395       .  A
N2116      O2131   1.262       .  A
N2116      O2132   1.262       .  A
N2118      O2129   1.263       .  A
N2118      O2130   1.261       .  A
C2120      C2121   1.411       .  A
C2120      N2125   1.428       .  S
C2121      C2122   1.408       .  A
C2121      H2126   1.083       .  S
C2122      C2123   1.423       .  A
C2123      C2124   1.394       .  A
C2123      N2127   1.429       .  S
C2124      H2128   1.085       .  S
N2125      O2135   1.261       .  A
N2125      O2136   1.262       .  A
N2127      O2133   1.262       .  A
N2127      O2134   1.262       .  A
C2137      C2138   1.401   1_554  A
C2137      C2142   1.403       .  A
C2137      H2147   1.084       .  S
C2138      C2143   1.483       .  S
C2138      C2139   1.408       .  A
C2139      C2140   1.406       .  A
C2139      N2144   1.430       .  S
C2140      C2141   1.408       .  A
C2140      H2145   1.084       .  S
C2141      C2142   1.410   1_556  A
C2142      N2146   1.427       .  S
C2143      C2148   1.400       .  A
C2143      C2152   1.396   1_556  A
N2144      O2159   1.262       .  A
N2144      O2160   1.261       .  A
N2146      O2157   1.262       .  A
N2146      O2158   1.262       .  A
C2148      C2149   1.397       .  A
C2148      N2153   1.430       .  S
C2149      C2150   1.421       .  A
C2149      H2154   1.082       .  S
C2150      C2151   1.438   1_556  A
C2151      C2152   1.407       .  A
C2151      N2155   1.430       .  S
C2152      H2156   1.084       .  S
N2153      O2163   1.262       .  A
N2153      O2164   1.262       .  A
N2155      O2161   1.262       .  A
N2155      O2162   1.261       .  A
C2165      C2166   1.400       .  A
C2165      C2170   1.394       .  A
C2165      H2175   1.084       .  S
C2166      C2171   1.489       .  S
C2166      C2167   1.413       .  A
C2167      C2168   1.406       .  A
C2167      N2172   1.428       .  S
C2168      C2169   1.403       .  A
C2168      H2173   1.084       .  S
C2169      C2170   1.408       .  A
C2170      N2174   1.424       .  S
C2171      C2176   1.402       .  A
C2171      C2180   1.401   1_556  A
N2172      O2187   1.262   1_556  A
N2172      O2188   1.262       .  A
N2174      O2185   1.260       .  A
N2174      O2186   1.261       .  A
C2176      C2177   1.394       .  A
C2176      N2181   1.430       .  S
C2177      C2178   1.421       .  A
C2177      H2182   1.079       .  S
C2178      C2179   1.431   1_556  A
C2179      C2180   1.409       .  A
C2179      N2183   1.429       .  S
C2180      H2184   1.083       .  S
N2181      O2191   1.262       .  A
N2181      O2192   1.262       .  A
N2183      O2189   1.262       .  A
N2183      O2190   1.261       .  A
C2193      C2194   1.405       .  A
C2193      C2198   1.408       .  A
C2193      H2203   1.083       .  S
C2194      C2199   1.504       .  S
C2194      C2195   1.413   1_556  A
C2195      C2196   1.407       .  A
C2195      N2200   1.429       .  S
C2196      C2197   1.408   1_554  A
C2196      H2201   1.080       .  S
C2197      C2198   1.417       .  A
C2198      N2202   1.427       .  S
C2199      C2204   1.406       .  A
C2199      C2208   1.403   1_556  A
N2200      O2215   1.262       .  A
N2200      O2216   1.262       .  A
N2202      O2213   1.262       .  A
N2202      O2214   1.262       .  A
C2204      C2205   1.401       .  A
C2204      N2209   1.428       .  S
C2205      C2206   1.419       .  A
C2205      H2210   1.083       .  S
C2206      C2207   1.439   1_556  A
C2207      C2208   1.413       .  A
C2207      N2211   1.432       .  S
C2208      H2212   1.084       .  S
N2209      O2219   1.262       .  A
N2209      O2220   1.261       .  A
N2211      O2217   1.261       .  A
N2211      O2218   1.263       .  A
C2221      C2222   1.397   1_554  A
C2221      C2226   1.394       .  A
C2221      H2231   1.084       .  S
C2222      C2227   1.478       .  S
C2222      C2223   1.411       .  A
C2223      C2224   1.405       .  A
C2223      N2228   1.428       .  S
C2224      C2225   1.403       .  A
C2224      H2229   1.084       .  S
C2225      C2226   1.413   1_556  A
C2226      N2230   1.429       .  S
C2227      C2232   1.404       .  A
C2227      C2236   1.394       .  A
N2228      O2243   1.262       .  A
N2228      O2244   1.262       .  A
N2230      O2241   1.261       .  A
N2230      O2242   1.262       .  A
C2232      C2233   1.397       .  A
C2232      N2237   1.429       .  S
C2233      C2234   1.416       .  A
C2233      H2238   1.078   1_556  S
C2234      C2235   1.437       .  A
C2235      C2236   1.402       .  A
C2235      N2239   1.433       .  S
C2236      H2240   1.084       .  S
N2237      O2247   1.262   1_556  A
N2237      O2248   1.262       .  A
N2239      O2245   1.262       .  A
N2239      O2246   1.262   1_556  A
C2249      C2250   1.405       .  A
C2249      C2254   1.405       .  A
C2249      H2259   1.084       .  S
C2250      C2255   1.495       .  S
C2250      C2251   1.411       .  A
C2251      C2252   1.404       .  A
C2251      N2256   1.429       .  S
C2252      C2253   1.411       .  A
C2252      H2257   1.083       .  S
C2253      C2254   1.418       .  A
C2254      N2258   1.429       .  S
C2255      C2260   1.411       .  A
C2255      C2264   1.396       .  A
N2256      O2271   1.262       .  A
N2256      O2272   1.262       .  A
N2258      O2269   1.262       .  A
N2258      O2270   1.261       .  A
C2260      C2261   1.409       .  A
C2260      N2265   1.429       .  S
C2261      C2262   1.416       .  A
C2261      H2266   1.080       .  S
C2262      C2263   1.428       .  A
C2263      C2264   1.398       .  A
C2263      N2267   1.426       .  S
C2264      H2268   1.084       .  S
N2265      O2275   1.262       .  A
N2265      O2276   1.262       .  A
N2267      O2273   1.262       .  A
N2267      O2274   1.263       .  A
C2277      C2278   1.395       .  A
C2277      C2282   1.405       .  A
C2277      H2287   1.084       .  S
C2278      C2283   1.477       .  S
C2278      C2279   1.399       .  A
C2279      C2280   1.392       .  A
C2279      N2284   1.429       .  S
C2280      C2281   1.418       .  A
C2280      H2285   1.077       .  S
C2281      C2282   1.437       .  A
C2282      N2286   1.432       .  S
C2283      C2288   1.408       .  A
C2283      C2292   1.393       .  A
N2284      O2299   1.262       .  A
N2284      O2300   1.262       .  A
N2286      O2297   1.261       .  A
N2286      O2298   1.261       .  A
C2288      C2289   1.409       .  A
C2288      N2293   1.429       .  S
C2289      C2290   1.410       .  A
C2289      H2294   1.082       .  S
C2290      C2291   1.422       .  A
C2291      C2292   1.393       .  A
C2291      N2295   1.430       .  S
C2292      H2296   1.085       .  S
N2293      O2303   1.262       .  A
N2293      O2304   1.262       .  A
N2295      O2301   1.261       .  A
N2295      O2302   1.262       .  A
C2305      C2306   1.401   1_554  A
C2305      C2310   1.401       .  A
C2305      H2315   1.084       .  S
C2306      C2311   1.488       .  S
C2306      C2307   1.411       .  A
C2307      C2308   1.403       .  A
C2307      N2312   1.429       .  S
C2308      C2309   1.408       .  A
C2308      H2313   1.084       .  S
C2309      C2310   1.419   1_556  A
C2310      N2314   1.429       .  S
C2311      C2316   1.407       .  A
C2311      C2320   1.399   1_556  A
N2312      O2327   1.262       .  A
N2312      O2328   1.262       .  A
N2314      O2325   1.262       .  A
N2314      O2326   1.262       .  A
C2316      C2317   1.402       .  A
C2316      N2321   1.430       .  S
C2317      C2318   1.419   1_556  A
C2317      H2322   1.079       .  S
C2318      C2319   1.430       .  A
C2319      C2320   1.401       .  A
C2319      N2323   1.432       .  S
C2320      H2324   1.084       .  S
N2321      O2331   1.262       .  A
N2321      O2332   1.262       .  A
N2323      O2329   1.262       .  A
N2323      O2330   1.262       .  A
C2333      C2334   1.403   1_556  A
C2333      C2338   1.402       .  A
C2333      H2343   1.084       .  S
C2334      C2339   1.482       .  S
C2334      C2335   1.401       .  A
C2335      C2336   1.396       .  A
C2335      N2340   1.429       .  S
C2336      C2337   1.417   1_554  A
C2336      H2341   1.071       .  S
C2337      C2338   1.428       .  A
C2338      N2342   1.434       .  S
C2339      C2344   1.414       .  A
C2339      C2348   1.397   1_554  A
N2340      O2355   1.262   1_554  A
N2340      O2356   1.262       .  A
N2342      O2353   1.262       .  A
N2342      O2354   1.261       .  A
C2344      C2345   1.407       .  A
C2344      N2349   1.428       .  S
C2345      C2346   1.404       .  A
C2345      H2350   1.084       .  S
C2346      C2347   1.416   1_554  A
C2347      C2348   1.391       .  A
C2347      N2351   1.430       .  S
C2348      H2352   1.085       .  S
N2349      O2359   1.262       .  A
N2349      O2360   1.262       .  A
N2351      O2357   1.262       .  A
N2351      O2358   1.261       .  A
C2361      C2362   1.397   1_554  A
C2361      C2366   1.401       .  A
C2361      H2371   1.084       .  S
C2362      C2367   1.477       .  S
C2362      C2363   1.405       .  A
C2363      C2364   1.405       .  A
C2363      N2368   1.429       .  S
C2364      C2365   1.410       .  A
C2364      H2369   1.084       .  S
C2365      C2366   1.409   1_556  A
C2366      N2370   1.421       .  S
C2367      C2372   1.397       .  A
C2367      C2376   1.396   1_556  A
N2368      O2383   1.262       .  A
N2368      O2384   1.262       .  A
N2370      O2381   1.260       .  A
N2370      O2382   1.262       .  A
C2372      C2373   1.394       .  A
C2372      N2377   1.429       .  S
C2373      C2374   1.418       .  A
C2373      H2378   1.074       .  S
C2374      C2375   1.437   1_556  A
C2375      C2376   1.405       .  A
C2375      N2379   1.432       .  S
C2376      H2380   1.084       .  S
N2377      O2387   1.262       .  A
N2377      O2388   1.262       .  A
N2379      O2385   1.262       .  A
N2379      O2386   1.262       .  A
C2389      C2390   1.400   1_556  A
C2389      C2394   1.406       .  A
C2389      H2399   1.084       .  S
C2390      C2395   1.475       .  S
C2390      C2391   1.396       .  A
C2391      C2392   1.394       .  A
C2391      N2396   1.428       .  S
C2392      C2393   1.420       .  A
C2392      H2397   1.079       .  S
C2393      C2394   1.433   1_554  A
C2394      N2398   1.435       .  S
C2395      C2400   1.408       .  A
C2395      C2404   1.398       .  A
N2396      O2411   1.262       .  A
N2396      O2412   1.262       .  A
N2398      O2409   1.262       .  A
N2398      O2410   1.261       .  A
C2400      C2401   1.401       .  A
C2400      N2405   1.428       .  S
C2401      C2402   1.401       .  A
C2401      H2406   1.084       .  S
C2402      C2403   1.411       .  A
C2403      C2404   1.398       .  A
C2403      N2407   1.427       .  S
C2404      H2408   1.084       .  S
N2405      O2415   1.262       .  A
N2405      O2416   1.262       .  A
N2407      O2413   1.262   1_554  A
N2407      O2414   1.261       .  A
C2417      C2418   1.401   1_565  A
C2417      C2422   1.405       .  A
C2417      H2427   1.084       .  S
C2418      C2423   1.492       .  S
C2418      C2419   1.410       .  A
C2419      C2420   1.406       .  A
C2419      N2424   1.428       .  S
C2420      C2421   1.408       .  A
C2420      H2425   1.083       .  S
C2421      C2422   1.420   1_545  A
C2422      N2426   1.428       .  S
C2423      C2428   1.402   1_545  A
C2423      C2432   1.400       .  A
N2424      O2439   1.262       .  A
N2424      O2440   1.262       .  A
N2426      O2437   1.262       .  A
N2426      O2438   1.262       .  A
C2428      C2429   1.398       .  A
C2428      N2433   1.428       .  S
C2429      C2430   1.421   1_565  A
C2429      H2434   1.084       .  S
C2430      C2431   1.438       .  A
C2431      C2432   1.411       .  A
C2431      N2435   1.431       .  S
C2432      H2436   1.084       .  S
N2433      O2443   1.262       .  A
N2433      O2444   1.262       .  A
N2435      O2441   1.260       .  A
N2435      O2442   1.262       .  A
C2445      C2446   1.404       .  A
C2445      C2450   1.402       .  A
C2445      H2455   1.084       .  S
C2446      C2451   1.481       .  S
C2446      C2447   1.409   1_545  A
C2447      C2448   1.395       .  A
C2447      N2452   1.429       .  S
C2448      C2449   1.403   1_565  A
C2448      H2453   1.085       .  S
C2449      C2450   1.409       .  A
C2450      N2454   1.427       .  S
C2451      C2456   1.399       .  A
C2451      C2460   1.394       .  A
N2452      O2467   1.262       .  A
N2452      O2468   1.262       .  A
N2454      O2465   1.261       .  A
N2454      O2466   1.262       .  A
C2456      C2457   1.395       .  A
C2456      N2461   1.429   1_545  S
C2457      C2458   1.425       .  A
C2457      H2462   1.079   1_545  S
C2458      C2459   1.433       .  A
C2459      C2460   1.402       .  A
C2459      N2463   1.425       .  S
C2460      H2464   1.084       .  S
N2461      O2471   1.262   1_565  A
N2461      O2472   1.262       .  A
N2463      O2469   1.263       .  A
N2463      O2470   1.263   1_545  A
C2473      C2474   1.395       .  A
C2473      C2478   1.403       .  A
C2473      H2483   1.084       .  S
C2474      C2479   1.480       .  S
C2474      C2475   1.401       .  A
C2475      C2476   1.394       .  A
C2475      N2480   1.431       .  S
C2476      C2477   1.423       .  A
C2476      H2481   1.079       .  S
C2477      C2478   1.435       .  A
C2478      N2482   1.430       .  S
C2479      C2484   1.406       .  A
C2479      C2488   1.402       .  A
N2480      O2495   1.262       .  A
N2480      O2496   1.262       .  A
N2482      O2493   1.262       .  A
N2482      O2494   1.262       .  A
C2484      C2485   1.394       .  A
C2484      N2489   1.430       .  S
C2485      C2486   1.409       .  A
C2485      H2490   1.083       .  S
C2486      C2487   1.417       .  A
C2487      C2488   1.403       .  A
C2487      N2491   1.428       .  S
C2488      H2492   1.084       .  S
N2489      O2499   1.262       .  A
N2489      O2500   1.262       .  A
N2491      O2497   1.262       .  A
N2491      O2498   1.261       .  A
C2501      C2502   1.404       .  A
C2501      C2506   1.405       .  A
C2501      H2511   1.084       .  S
C2502      C2507   1.484       .  S
C2502      C2503   1.405       .  A
C2503      C2504   1.397       .  A
C2503      N2508   1.429       .  S
C2504      C2505   1.413       .  A
C2504      H2509   1.083       .  S
C2505      C2506   1.416       .  A
C2506      N2510   1.427       .  S
C2507      C2512   1.401       .  A
C2507      C2516   1.400       .  A
N2508      O2523   1.262       .  A
N2508      O2524   1.262       .  A
N2510      O2521   1.262       .  A
N2510      O2522   1.261       .  A
C2512      C2513   1.394       .  A
C2512      N2517   1.429       .  S
C2513      C2514   1.422       .  A
C2513      H2518   1.083       .  S
C2514      C2515   1.435       .  A
C2515      C2516   1.407       .  A
C2515      N2519   1.435       .  S
C2516      H2520   1.084       .  S
N2517      O2527   1.262       .  A
N2517      O2528   1.262       .  A
N2519      O2525   1.260       .  A
N2519      O2526   1.261       .  A
C2529      C2530   1.402       .  A
C2529      C2534   1.402       .  A
C2529      H2539   1.084       .  S
C2530      C2535   1.480       .  S
C2530      C2531   1.414       .  A
C2531      C2532   1.396       .  A
C2531      N2536   1.430       .  S
C2532      C2533   1.398       .  A
C2532      H2537   1.084       .  S
C2533      C2534   1.411       .  A
C2534      N2538   1.430       .  S
C2535      C2540   1.401       .  A
C2535      C2544   1.387       .  A
N2536      O2551   1.262       .  A
N2536      O2552   1.262       .  A
N2538      O2549   1.262       .  A
N2538      O2550   1.262       .  A
C2540      C2541   1.403       .  A
C2540      N2545   1.428       .  S
C2541      C2542   1.420       .  A
C2541      H2546   1.076       .  S
C2542      C2543   1.437       .  A
C2543      C2544   1.395       .  A
C2543      N2547   1.422       .  S
C2544      H2548   1.085       .  S
N2545      O2555   1.262       .  A
N2545      O2556   1.262       .  A
N2547      O2553   1.261       .  A
N2547      O2554   1.261       .  A
C2557      C2558   1.397       .  A
C2557      C2562   1.406       .  A
C2557      H2567   1.084       .  S
C2558      C2563   1.485       .  S
C2558      C2559   1.399       .  A
C2559      C2560   1.397       .  A
C2559      N2564   1.428       .  S
C2560      C2561   1.420       .  A
C2560      H2565   1.077       .  S
C2561      C2562   1.436       .  A
C2562      N2566   1.431       .  S
C2563      C2568   1.407       .  A
C2563      C2572   1.403       .  A
N2564      O2579   1.262       .  A
N2564      O2580   1.262       .  A
N2566      O2577   1.262       .  A
N2566      O2578   1.261       .  A
C2568      C2569   1.403       .  A
C2568      N2573   1.430       .  S
C2569      C2570   1.405       .  A
C2569      H2574   1.080       .  S
C2570      C2571   1.413       .  A
C2571      C2572   1.407       .  A
C2571      N2575   1.428       .  S
C2572      H2576   1.084       .  S
N2573      O2583   1.262       .  A
N2573      O2584   1.262       .  A
N2575      O2581   1.262       .  A
N2575      O2582   1.261       .  A
C2585      C2586   1.395       .  A
C2585      C2590   1.402       .  A
C2585      H2595   1.084       .  S
C2586      C2591   1.490       .  S
C2586      C2587   1.406       .  A
C2587      C2588   1.409       .  A
C2587      N2592   1.429       .  S
C2588      C2589   1.421       .  A
C2588      H2593   1.078       .  S
C2589      C2590   1.431       .  A
C2590      N2594   1.429       .  S
C2591      C2596   1.407       .  A
C2591      C2600   1.405       .  A
N2592      O2607   1.262       .  A
N2592      O2608   1.262       .  A
N2594      O2605   1.262       .  A
N2594      O2606   1.262       .  A
C2596      C2597   1.402       .  A
C2596      N2601   1.427       .  S
C2597      C2598   1.406       .  A
C2597      H2602   1.084       .  S
C2598      C2599   1.418       .  A
C2599      C2600   1.410       .  A
C2599      N2603   1.431       .  S
C2600      H2604   1.084       .  S
N2601      O2611   1.261       .  A
N2601      O2612   1.262       .  A
N2603      O2609   1.262       .  A
N2603      O2610   1.262       .  A
C2613      C2614   1.400       .  A
C2613      C2618   1.414       .  A
C2613      H2623   1.084       .  S
C2614      C2619   1.488       .  S
C2614      C2615   1.398       .  A
C2615      C2616   1.394       .  A
C2615      N2620   1.429       .  S
C2616      C2617   1.415       .  A
C2616      H2621   1.074       .  S
C2617      C2618   1.442       .  A
C2618      N2622   1.434       .  S
C2619      C2624   1.409       .  A
C2619      C2628   1.396       .  A
N2620      O2635   1.262       .  A
N2620      O2636   1.262       .  A
N2622      O2633   1.261       .  A
N2622      O2634   1.261       .  A
C2624      C2625   1.409       .  A
C2624      N2629   1.428       .  S
C2625      C2626   1.411       .  A
C2625      H2630   1.083       .  S
C2626      C2627   1.423       .  A
C2627      C2628   1.401       .  A
C2627      N2631   1.429       .  S
C2628      H2632   1.084       .  S
N2629      O2639   1.262       .  A
N2629      O2640   1.262       .  A
N2631      O2637   1.261       .  A
N2631      O2638   1.261       .  A
C2641      C2642   1.400       .  A
C2641      C2646   1.400       .  A
C2641      H2651   1.084       .  S
C2642      C2647   1.480       .  S
C2642      C2643   1.416       .  A
C2643      C2644   1.394       .  A
C2643      N2648   1.426       .  S
C2644      C2645   1.394       .  A
C2644      H2649   1.085       .  S
C2645      C2646   1.414       .  A
C2646      N2650   1.426       .  S
C2647      C2652   1.402       .  A
C2647      C2656   1.401       .  A
N2648      O2663   1.262       .  A
N2648      O2664   1.261       .  A
N2650      O2661   1.261       .  A
N2650      O2662   1.261       .  A
C2652      C2653   1.396       .  A
C2652      N2657   1.430       .  S
C2653      C2654   1.419       .  A
C2653      H2658   1.080       .  S
C2654      C2655   1.427       .  A
C2655      C2656   1.405       .  A
C2655      N2659   1.429       .  S
C2656      H2660   1.084       .  S
N2657      O2667   1.262       .  A
N2657      O2668   1.261       .  A
N2659      O2665   1.262       .  A
N2659      O2666   1.262       .  A
C2669      C2670   1.409       .  A
C2669      C2674   1.398       .  A
C2669      H2679   1.080       .  S
C2670      C2675   1.498       .  S
C2670      C2671   1.419       .  A
C2671      C2672   1.402       .  A
C2671      N2676   1.430       .  S
C2672      C2673   1.398       .  A
C2672      H2677   1.084       .  S
C2673      C2674   1.405       .  A
C2674      N2678   1.431       .  S
C2675      C2680   1.409       .  A
C2675      C2684   1.402       .  A
N2676      O2691   1.262       .  A
N2676      O2692   1.262       .  A
N2678      O2689   1.261   1_565  A
N2678      O2690   1.262       .  A
C2680      C2681   1.394       .  A
C2680      N2685   1.431       .  S
C2681      C2682   1.418       .  A
C2681      H2686   1.073       .  S
C2682      C2683   1.434       .  A
C2683      C2684   1.403       .  A
C2683      N2687   1.432       .  S
C2684      H2688   1.082       .  S
N2685      O2695   1.263       .  A
N2685      O2696   1.262       .  A
N2687      O2693   1.262   1_554  A
N2687      O2694   1.261       .  A
C2697      C2698   1.405       .  A
C2697      C2702   1.403       .  A
C2697      H2707   1.084       .  S
C2698      C2703   1.491       .  S
C2698      C2699   1.407       .  A
C2699      C2700   1.402       .  A
C2699      N2704   1.428       .  S
C2700      C2701   1.409       .  A
C2700      H2705   1.084       .  S
C2701      C2702   1.418       .  A
C2702      N2706   1.432       .  S
C2703      C2708   1.401       .  A
C2703      C2712   1.400       .  A
N2704      O2719   1.261       .  A
N2704      O2720   1.262       .  A
N2706      O2717   1.262       .  A
N2706      O2718   1.262       .  A
C2708      C2709   1.397       .  A
C2708      N2713   1.433       .  S
C2709      C2710   1.421       .  A
C2709      H2714   1.070   1_554  S
C2710      C2711   1.439       .  A
C2711      C2712   1.411       .  A
C2711      N2715   1.435       .  S
C2712      H2716   1.084       .  S
N2713      O2723   1.262       .  A
N2713      O2724   1.262       .  A
N2715      O2721   1.261       .  A
N2715      O2722   1.263       .  A
C2725      C2726   1.405       .  A
C2725      C2730   1.401       .  A
C2725      H2735   1.084       .  S
C2726      C2731   1.478       .  S
C2726      C2727   1.407       .  A
C2727      C2728   1.397       .  A
C2727      N2732   1.429       .  S
C2728      C2729   1.406       .  A
C2728      H2733   1.085       .  S
C2729      C2730   1.408       .  A
C2730      N2734   1.429       .  S
C2731      C2736   1.401       .  A
C2731      C2740   1.395       .  A
N2732      O2747   1.262       .  A
N2732      O2748   1.262       .  A
N2734      O2745   1.262       .  A
N2734      O2746   1.262       .  A
C2736      C2737   1.396       .  A
C2736      N2741   1.429       .  S
C2737      C2738   1.420       .  A
C2737      H2742   1.083       .  S
C2738      C2739   1.439       .  A
C2739      C2740   1.402       .  A
C2739      N2743   1.430       .  S
C2740      H2744   1.085       .  S
N2741      O2751   1.262       .  A
N2741      O2752   1.262       .  A
N2743      O2749   1.263       .  A
N2743      O2750   1.261       .  A
C2753      C2754   1.397       .  A
C2753      C2758   1.409       .  A
C2753      H2763   1.084       .  S
C2754      C2759   1.479       .  S
C2754      C2755   1.397       .  A
C2755      C2756   1.394       .  A
C2755      N2760   1.430       .  S
C2756      C2757   1.423       .  A
C2756      H2761   1.083       .  S
C2757      C2758   1.438       .  A
C2758      N2762   1.433       .  S
C2759      C2764   1.405       .  A
C2759      C2768   1.403       .  A
N2760      O2775   1.262       .  A
N2760      O2776   1.262       .  A
N2762      O2773   1.260       .  A
N2762      O2774   1.262       .  A
C2764      C2765   1.397       .  A
C2764      N2769   1.428       .  S
C2765      C2766   1.406       .  A
C2765      H2770   1.084       .  S
C2766      C2767   1.416       .  A
C2767      C2768   1.406       .  A
C2767      N2771   1.430       .  S
C2768      H2772   1.084       .  S
N2769      O2779   1.262       .  A
N2769      O2780   1.262       .  A
N2771      O2777   1.262       .  A
N2771      O2778   1.262       .  A
C2781      C2782   1.399       .  A
C2781      C2786   1.412       .  A
C2781      H2791   1.084       .  S
C2782      C2787   1.485       .  S
C2782      C2783   1.398       .  A
C2783      C2784   1.395       .  A
C2783      N2788   1.428       .  S
C2784      C2785   1.419       .  A
C2784      H2789   1.077       .  S
C2785      C2786   1.439       .  A
C2786      N2790   1.432       .  S
C2787      C2792   1.413       .  A
C2787      C2796   1.397       .  A
N2788      O2803   1.262       .  A
N2788      O2804   1.262       .  A
N2790      O2801   1.262       .  A
N2790      O2802   1.261       .  A
C2792      C2793   1.411       .  A
C2792      N2797   1.428       .  S
C2793      C2794   1.406       .  A
C2793      H2798   1.084       .  S
C2794      C2795   1.413       .  A
C2795      C2796   1.395       .  A
C2795      N2799   1.428       .  S
C2796      H2800   1.085       .  S
N2797      O2807   1.262       .  A
N2797      O2808   1.262       .  A
N2799      O2805   1.261       .  A
N2799      O2806   1.261       .  A
C2809      C2810   1.402       .  A
C2809      C2814   1.403       .  A
C2809      H2819   1.084       .  S
C2810      C2815   1.483       .  S
C2810      C2811   1.406   1_545  A
C2811      C2812   1.403       .  A
C2811      N2816   1.431       .  S
C2812      C2813   1.411   1_565  A
C2812      H2817   1.084       .  S
C2813      C2814   1.414       .  A
C2814      N2818   1.429       .  S
C2815      C2820   1.397       .  A
C2815      C2824   1.398       .  A
N2816      O2831   1.262       .  A
N2816      O2832   1.262       .  A
N2818      O2829   1.262       .  A
N2818      O2830   1.261       .  A
C2820      C2821   1.394       .  A
C2820      N2825   1.429   1_545  S
C2821      C2822   1.421       .  A
C2821      H2826   1.078   1_545  S
C2822      C2823   1.433       .  A
C2823      C2824   1.408       .  A
C2823      N2827   1.430       .  S
C2824      H2828   1.084       .  S
N2825      O2835   1.261   1_565  A
N2825      O2836   1.262       .  A
N2827      O2833   1.262   1_545  A
N2827      O2834   1.262       .  A
C2837      C2838   1.399       .  A
C2837      C2842   1.409       .  A
C2837      H2847   1.084       .  S
C2838      C2843   1.500       .  S
C2838      C2839   1.408   1_545  A
C2839      C2840   1.406       .  A
C2839      N2844   1.429       .  S
C2840      C2841   1.420   1_565  A
C2840      H2845   1.076       .  S
C2841      C2842   1.436       .  A
C2842      N2846   1.435       .  S
C2843      C2848   1.413   1_545  A
C2843      C2852   1.403       .  A
N2844      O2859   1.262       .  A
N2844      O2860   1.262       .  A
N2846      O2857   1.263       .  A
N2846      O2858   1.261       .  A
C2848      C2849   1.407       .  A
C2848      N2853   1.429       .  S
C2849      C2850   1.406   1_565  A
C2849      H2854   1.080       .  S
C2850      C2851   1.418       .  A
C2851      C2852   1.408       .  A
C2851      N2855   1.427       .  S
C2852      H2856   1.084       .  S
N2853      O2863   1.262       .  A
N2853      O2864   1.262       .  A
N2855      O2861   1.261       .  A
N2855      O2862   1.262       .  A
C2865      C2866   1.398       .  A
C2865      C2870   1.407       .  A
C2865      H2875   1.084       .  S
C2866      C2871   1.483       .  S
C2866      C2867   1.403       .  A
C2867      C2868   1.402       .  A
C2867      N2872   1.430       .  S
C2868      C2869   1.417       .  A
C2868      H2873   1.076       .  S
C2869      C2870   1.434       .  A
C2870      N2874   1.434       .  S
C2871      C2876   1.409       .  A
C2871      C2880   1.400       .  A
N2872      O2887   1.262       .  A
N2872      O2888   1.262       .  A
N2874      O2885   1.262       .  A
N2874      O2886   1.262       .  A
C2876      C2877   1.394       .  A
C2876      N2881   1.424       .  S
C2877      C2878   1.399       .  A
C2877      H2882   1.084       .  S
C2878      C2879   1.424       .  A
C2879      C2880   1.406       .  A
C2879      N2883   1.429       .  S
C2880      H2884   1.084       .  S
N2881      O2891   1.261       .  A
N2881      O2892   1.262       .  A
N2883      O2889   1.262       .  A
N2883      O2890   1.262       .  A
C2893      C2894   1.403       .  A
C2893      C2898   1.406       .  A
C2893      H2903   1.084       .  S
C2894      C2899   1.485       .  S
C2894      C2895   1.406       .  A
C2895      C2896   1.401       .  A
C2895      N2900   1.428       .  S
C2896      C2897   1.411       .  A
C2896      H2901   1.083       .  S
C2897      C2898   1.420       .  A
C2898      N2902   1.429       .  S
C2899      C2904   1.404       .  A
C2899      C2908   1.392       .  A
N2900      O2915   1.262       .  A
N2900      O2916   1.262       .  A
N2902      O2913   1.262       .  A
N2902      O2914   1.262       .  A
C2904      C2905   1.405       .  A
C2904      N2909   1.429       .  S
C2905      C2906   1.423       .  A
C2905      H2910   1.079       .  S
C2906      C2907   1.434       .  A
C2907      C2908   1.398       .  A
C2907      N2911   1.427       .  S
C2908      H2912   1.085       .  S
N2909      O2919   1.262       .  A
N2909      O2920   1.261       .  A
N2911      O2917   1.262       .  A
N2911      O2918   1.262       .  A
C2921      C2922   1.395       .  A
C2921      C2926   1.405       .  A
C2921      H2931   1.084       .  S
C2922      C2927   1.469       .  S
C2922      C2923   1.395       .  A
C2923      C2924   1.390       .  A
C2923      N2928   1.430       .  S
C2924      C2925   1.425       .  A
C2924      H2929   1.077       .  S
C2925      C2926   1.434       .  A
C2926      N2930   1.432       .  S
C2927      C2932   1.409       .  A
C2927      C2936   1.400       .  A
N2928      O2943   1.262       .  A
N2928      O2944   1.262       .  A
N2930      O2941   1.261       .  A
N2930      O2942   1.262       .  A
C2932      C2933   1.396       .  A
C2932      N2937   1.428       .  S
C2933      C2934   1.398       .  A
C2933      H2938   1.085       .  S
C2934      C2935   1.407       .  A
C2935      C2936   1.397       .  A
C2935      N2939   1.429       .  S
C2936      H2940   1.084       .  S
N2937      O2947   1.262       .  A
N2937      O2948   1.262       .  A
N2939      O2945   1.261       .  A
N2939      O2946   1.261       .  A
C2949      C2950   1.395       .  A
C2949      C2954   1.407       .  A
C2949      H2959   1.084       .  S
C2950      C2955   1.481       .  S
C2950      C2951   1.399       .  A
C2951      C2952   1.399       .  A
C2951      N2956   1.430       .  S
C2952      C2953   1.424       .  A
C2952      H2957   1.083       .  S
C2953      C2954   1.441       .  A
C2954      N2958   1.432       .  S
C2955      C2960   1.408       .  A
C2955      C2964   1.399       .  A
N2956      O2971   1.262       .  A
N2956      O2972   1.262       .  A
N2958      O2969   1.261       .  A
N2958      O2970   1.262       .  A
C2960      C2961   1.405       .  A
C2960      N2965   1.429       .  S
C2961      C2962   1.407       .  A
C2961      H2966   1.084       .  S
C2962      C2963   1.416       .  A
C2963      C2964   1.402       .  A
C2963      N2967   1.429       .  S
C2964      H2968   1.084       .  S
N2965      O2975   1.262       .  A
N2965      O2976   1.262       .  A
N2967      O2973   1.262       .  A
N2967      O2974   1.262       .  A
C2977      C2978   1.396       .  A
C2977      C2982   1.407       .  A
C2977      H2987   1.084       .  S
C2978      C2983   1.495       .  S
C2978      C2979   1.405       .  A
C2979      C2980   1.404       .  A
C2979      N2984   1.427       .  S
C2980      C2981   1.421       .  A
C2980      H2985   1.078       .  S
C2981      C2982   1.435       .  A
C2982      N2986   1.428       .  S
C2983      C2988   1.413       .  A
C2983      C2992   1.403       .  A
N2984      O2999   1.261       .  A
N2984      O3000   1.262       .  A
N2986      O2997   1.262       .  A
N2986      O2998   1.262       .  A
C2988      C2989   1.408       .  A
C2988      N2993   1.428       .  S
C2989      C2990   1.405       .  A
C2989      H2994   1.084       .  S
C2990      C2991   1.416       .  A
C2991      C2992   1.407       .  A
C2991      N2995   1.429       .  S
C2992      H2996   1.084       .  S
N2993      O3003   1.262       .  A
N2993      O3004   1.261       .  A
N2995      O3001   1.262       .  A
N2995      O3002   1.262       .  A
C3005      C3006   1.405       .  A
C3005      C3010   1.406       .  A
C3005      H3015   1.083       .  S
C3006      C3011   1.510       .  S
C3006      C3007   1.419       .  A
C3007      C3008   1.410       .  A
C3007      N3012   1.429       .  S
C3008      C3009   1.407       .  A
C3008      H3013   1.084       .  S
C3009      C3010   1.419       .  A
C3010      N3014   1.429       .  S
C3011      C3016   1.411       .  A
C3011      C3020   1.400       .  A
N3012      O3027   1.262       .  A
N3012      O3028   1.262       .  A
N3014      O3025   1.262       .  A
N3014      O3026   1.262       .  A
C3016      C3017   1.405       .  A
C3016      N3021   1.429       .  S
C3017      C3018   1.417       .  A
C3017      H3022   1.083       .  S
C3018      C3019   1.443       .  A
C3019      C3020   1.412       .  A
C3019      N3023   1.432       .  S
C3020      H3024   1.083       .  S
N3021      O3031   1.262       .  A
N3021      O3032   1.262       .  A
N3023      O3029   1.262       .  A
N3023      O3030   1.261       .  A
C3033      C3034   1.409       .  A
C3033      C3038   1.405       .  A
C3033      H3043   1.084       .  S
C3034      C3039   1.484       .  S
C3034      C3035   1.405       .  A
C3035      C3036   1.399       .  A
C3035      N3040   1.427       .  S
C3036      C3037   1.407       .  A
C3036      H3041   1.085       .  S
C3037      C3038   1.406       .  A
C3038      N3042   1.428       .  S
C3039      C3044   1.402       .  A
C3039      C3048   1.403       .  A
N3040      O3055   1.261       .  A
N3040      O3056   1.262       .  A
N3042      O3053   1.262       .  A
N3042      O3054   1.261       .  A
C3044      C3045   1.396       .  A
C3044      N3049   1.430       .  S
C3045      C3046   1.419       .  A
C3045      H3050   1.080       .  S
C3046      C3047   1.425       .  A
C3047      C3048   1.409       .  A
C3047      N3051   1.430       .  S
C3048      H3052   1.083       .  S
N3049      O3059   1.262       .  A
N3049      O3060   1.262       .  A
N3051      O3057   1.262       .  A
N3051      O3058   1.261       .  A
C3061      C3062   1.401       .  A
C3061      C3066   1.405       .  A
C3061      H3071   1.084       .  S
C3062      C3067   1.482       .  S
C3062      C3063   1.404       .  A
C3063      C3064   1.403       .  A
C3063      N3068   1.429       .  S
C3064      C3065   1.413       .  A
C3064      H3069   1.084       .  S
C3065      C3066   1.417       .  A
C3066      N3070   1.428       .  S
C3067      C3072   1.402       .  A
C3067      C3076   1.396       .  A
N3068      O3083   1.262       .  A
N3068      O3084   1.261       .  A
N3070      O3081   1.261       .  A
N3070      O3082   1.262       .  A
C3072      C3073   1.399       .  A
C3072      N3077   1.430       .  S
C3073      C3074   1.421       .  A
C3073      H3078   1.077       .  S
C3074      C3075   1.435       .  A
C3075      C3076   1.404       .  A
C3075      N3079   1.434       .  S
C3076      H3080   1.084       .  S
N3077      O3087   1.262       .  A
N3077      O3088   1.262       .  A
N3079      O3085   1.261       .  A
N3079      O3086   1.262   1_556  A
C3089      C3090   1.395       .  A
C3089      C3094   1.400       .  A
C3089      H3099   1.083       .  S
C3090      C3095   1.496       .  S
C3090      C3091   1.406       .  A
C3091      C3092   1.401       .  A
C3091      N3096   1.429       .  S
C3092      C3093   1.417       .  A
C3092      H3097   1.073       .  S
C3093      C3094   1.438       .  A
C3094      N3098   1.427   1_556  S
C3095      C3100   1.416       .  A
C3095      C3104   1.405       .  A
N3096      O3111   1.262       .  A
N3096      O3112   1.262       .  A
N3098      O3109   1.263       .  A
N3098      O3110   1.259       .  A
C3100      C3101   1.401       .  A
C3100      N3105   1.429       .  S
C3101      C3102   1.400       .  A
C3101      H3106   1.083       .  S
C3102      C3103   1.413       .  A
C3103      C3104   1.404       .  A
C3103      N3107   1.428       .  S
C3104      H3108   1.082       .  S
N3105      O3115   1.262       .  A
N3105      O3116   1.262       .  A
N3107      O3113   1.261       .  A
N3107      O3114   1.262       .  A
C3117      C3118   1.400       .  A
C3117      C3122   1.400       .  A
C3117      H3127   1.084       .  S
C3118      C3123   1.476       .  S
C3118      C3119   1.406       .  A
C3119      C3120   1.399       .  A
C3119      N3124   1.428       .  S
C3120      C3121   1.405       .  A
C3120      H3125   1.084       .  S
C3121      C3122   1.417       .  A
C3122      N3126   1.430       .  S
C3123      C3128   1.396       .  A
C3123      C3132   1.398       .  A
N3124      O3139   1.262       .  A
N3124      O3140   1.262       .  A
N3126      O3137   1.262       .  A
N3126      O3138   1.262       .  A
C3128      C3129   1.389       .  A
C3128      N3133   1.430       .  S
C3129      C3130   1.416       .  A
C3129      H3134   1.071       .  S
C3130      C3131   1.438       .  A
C3131      C3132   1.408       .  A
C3131      N3135   1.432       .  S
C3132      H3136   1.084       .  S
N3133      O3143   1.262       .  A
N3133      O3144   1.262       .  A
N3135      O3141   1.262       .  A
N3135      O3142   1.262       .  A
