geometry optimzed in LAMMPS
_audit_creation_date              2020-11-30 
_audit_creation_method            'lammps2cif' 
_symmetry_space_group_name_H-M    'P1' 
_symmetry_Int_Tables_number       1 
_symmetry_cell_setting            triclinic 
loop_ 
_symmetry_equiv_pos_as_xyz 
  x,y,z 
_cell_length_a                    29.34502616 
_cell_length_b                    30.145559595604645 
_cell_length_c                    27.905979915523567 
_cell_angle_alpha                 90.55920110427301 
_cell_angle_beta                  89.85593477741384 
_cell_angle_gamma                 87.3557133695207 
loop_ 
_atom_site_label 
_atom_site_type_symbol 
_atom_site_fract_x 
_atom_site_fract_y 
_atom_site_fract_z 
_atom_site_charge 
O1          O  0.43463493  0.45871444  0.04962303    -0.79800
O2          O  0.10437135  0.04877532  0.02325849    -0.79800
O3          O  0.03714768  0.44957013  0.06979247    -0.79900
O4          O  0.46164345  0.04813872  0.07078816    -0.79800
O5          O  0.09808551  0.45776516  0.02524720    -0.79900
O6          O  0.40569731  0.04328311  0.02396533    -0.79800
O7          O  0.04767815  0.05409869  0.07318565    -0.79800
O8          O  0.47226941  0.39426078  0.03759815    -0.79900
C9          C  0.44037100  0.41683371  0.05864214     1.09900
C10         C  0.08738816  0.06275131  0.06297356     1.09700
C11         C  0.07965027  0.44287877  0.06302001     1.09900
C12         C  0.42117605  0.05856386  0.06276896     1.09800
O13         O  0.44578567  0.03386640  0.43225484    -0.79800
O14         O  0.05407705  0.46344481  0.42901534    -0.79900
O15         O  0.45914651  0.43455445  0.45181500    -0.79800
O16         O  0.04912013  0.10197065  0.48170024    -0.79800
O17         O  0.06037508  0.04854670  0.42935463    -0.79900
O18         O  0.39196395  0.46897370  0.46492713    -0.79800
O19         O  0.45580240  0.09284691  0.47721891    -0.79800
O20         O  0.04627610  0.40868749  0.47631318    -0.79900
Co21       Co  0.44509973  0.49603575  0.98809897     1.51500
Co22       Co  0.07612316  0.00404521  0.47681366     1.51500
Co23       Co  0.49782624  0.44631973  0.01294017     1.51600
Co24       Co  0.50369663  0.07129986  0.52578643     1.51500
O25         O  0.51110826  0.51000313  0.99952899    -1.41800
C26         C  0.43960736  0.07532265  0.43923284     1.09800
C27         C  0.06277445  0.42380479  0.43812382     1.09900
C28         C  0.41595096  0.43885811  0.44310437     1.09800
C29         C  0.06438567  0.08821234  0.44108697     1.09800
O30         O  0.36248590  0.28508773  0.28531600    -0.79800
O31         O  0.19340770  0.20653967  0.32084158    -0.79800
O32         O  0.20832768  0.34605835  0.27324455    -0.79900
O33         O  0.29800472  0.16136129  0.27339199    -0.79800
O34         O  0.20006839  0.29156482  0.32076729    -0.79900
O35         O  0.30837445  0.22044099  0.31810893    -0.79800
O36         O  0.20450050  0.15280207  0.26885577    -0.79800
O37         O  0.29539949  0.31982554  0.29815270    -0.79900
C38         C  0.33858598  0.31538074  0.30695005     1.09900
C39         C  0.18913147  0.16687066  0.30931805     1.09700
C40         C  0.19152572  0.33117493  0.31138832     1.09900
C41         C  0.31439357  0.17894955  0.31124257     1.09800
O42         O  0.34823704  0.21134748  0.22489379    -0.79800
O43         O  0.15627846  0.29772134  0.22520785    -0.79900
O44         O  0.28258867  0.36056409  0.21270888    -0.79800
O45         O  0.20600637  0.20102533  0.17696933    -0.79800
O46         O  0.14938208  0.20671905  0.22693113    -0.79900
O47         O  0.31951398  0.29590348  0.19988628    -0.79800
O48         O  0.29195311  0.20617635  0.17843145    -0.79800
O49         O  0.21712175  0.30582577  0.18045760    -0.79900
Co50       Co  0.30935296  0.25855582  0.26136293     1.51500
Co51       Co  0.17801074  0.25081614  0.27312760     1.51700
Co52       Co  0.25674951  0.30850782  0.23712534     1.51600
Co53       Co  0.25025365  0.18301983  0.22470544     1.51500
O54         O  0.24318887  0.24482048  0.25028642    -1.41800
C55         C  0.33266437  0.19643633  0.18593973     1.09800
C56         C  0.17467028  0.31272913  0.18747669     1.09900
C57         C  0.31420396  0.33788780  0.19132144     1.09800
C58         C  0.16618572  0.19272488  0.18715005     1.09800
C59         C  0.10853800  0.09625957  0.09355927    -0.05000
C60         C  0.15182336  0.08779414  0.11344789    -0.02100
C61         C  0.16985638  0.11896793  0.14515897     0.02800
C62         C  0.14484561  0.15938613  0.15646425    -0.05000
C63         C  0.10166896  0.16801432  0.13629369    -0.02100
C64         C  0.08344839  0.13662326  0.10490931     0.02800
C65         C  0.17735699  0.04665577  0.10194024     0.37500
C66         C  0.07653620  0.20956015  0.14697465     0.37500
C67         C  0.03933822  0.14691685  0.08316825     0.35900
C68         C  0.21366794  0.10830507  0.16737221     0.35900
N69         N  0.00416232  0.15554904  0.06613102    -0.38900
N70         N  0.24856246  0.09927838  0.18483453    -0.38900
N71         N  0.05647132  0.24268165  0.15543033    -0.38400
N72         N  0.19771866  0.01389650  0.09262292    -0.38400
C73         C  0.16026885  0.14101350  0.34187045    -0.05000
C74         C  0.11869328  0.12445922  0.32562647    -0.02100
C75         C  0.08522395  0.11189780  0.35871960     0.02800
C76         C  0.09296738  0.11445132  0.40864484    -0.05000
C77         C  0.13453460  0.13100632  0.42488241    -0.02100
C78         C  0.16784377  0.14391326  0.39181009     0.02800
C79         C  0.10901312  0.12069144  0.27503649     0.37500
C80         C  0.14446956  0.13430050  0.47544810     0.37500
C81         C  0.21057161  0.16000747  0.40955308     0.35900
C82         C  0.04210071  0.09668097  0.34105818     0.35900
N83         N  0.24435184  0.17274413  0.42440002    -0.38900
N84         N  0.00793058  0.08481902  0.32626948    -0.38900
N85         N  0.15505351  0.13850783  0.51503334    -0.38400
N86         N  0.09879050  0.11606833  0.23539523    -0.38400
C87         C  0.14803817  0.34392076  0.15487928    -0.05000
C88         C  0.11256958  0.37316478  0.17308113    -0.02100
C89         C  0.09258225  0.40713469  0.14415647     0.02800
C90         C  0.10630611  0.41192331  0.09586157    -0.05000
C91         C  0.14199202  0.38286155  0.07780306    -0.02100
C92         C  0.16155249  0.34856152  0.10653498     0.02800
C93         C  0.09583770  0.36901123  0.22169430     0.37500
C94         C  0.15938696  0.38751714  0.02951861     0.37500
C95         C  0.19398932  0.31637476  0.08499938     0.35900
C96         C  0.05922019  0.43861373  0.16536922     0.35900
N97         N  0.21932692  0.29054564  0.06735461    -0.38900
N98         N  0.03299971  0.46373294  0.18279043    -0.38900
N99         N  0.17464439  0.39078827  0.99152469    -0.38400
N100        N  0.08110591  0.36623291  0.25997757    -0.38400
C101        C  0.35699308  0.16349058  0.15271785    -0.05000
C102        C  0.33524172  0.14836117  0.11000505    -0.02100
C103        C  0.35552365  0.11395767  0.08129236     0.02800
C104        C  0.39738401  0.09284280  0.09483380    -0.05000
C105        C  0.41913256  0.10806157  0.13749203    -0.02100
C106        C  0.39966776  0.14353791  0.16521766     0.02800
C107        C  0.29143215  0.16754344  0.09426469     0.37500
C108        C  0.46207255  0.08778246  0.15429072     0.37500
C109        C  0.42398464  0.15882251  0.20712256     0.35900
C110        C  0.33317333  0.10135440  0.03709043     0.35900
N111        N  0.44376739  0.17065508  0.24039601    -0.38900
N112        N  0.31515756  0.09195673  0.00177265    -0.38900
N113        N  0.49619135  0.07222446  0.16834878    -0.38400
N114        N  0.25656503  0.18214298  0.08111439    -0.38400
C115        C  0.39543767  0.40856431  0.40735578    -0.05000
C116        C  0.42007009  0.39462174  0.36564565    -0.02100
C117        C  0.40204328  0.36349044  0.33355298     0.02800
C118        C  0.35914813  0.34568578  0.34266469    -0.05000
C119        C  0.33451003  0.35966010  0.38435231    -0.02100
C120        C  0.35258177  0.39070907  0.41649440     0.02800
C121        C  0.46350370  0.41325855  0.35430397     0.37500
C122        C  0.29099471  0.34115700  0.39560834     0.37500
C123        C  0.32772439  0.40250835  0.46021595     0.35900
C124        C  0.42701324  0.35152599  0.28994566     0.35900
N125        N  0.30846375  0.41206699  0.99560347    -0.38900
N126        N  0.44704427  0.34227162  0.25519430    -0.38900
N127        N  0.25641838  0.32662458  0.40544322    -0.38400
N128        N  0.49798948  0.42792400  0.34436729    -0.38400
C129        C  0.40884680  0.10252761  0.40567037    -0.05000
C130        C  0.38865329  0.14428285  0.42054734    -0.02100
C131        C  0.35764988  0.16846707  0.39054295     0.02800
C132        C  0.34521783  0.15175974  0.34476466    -0.05000
C133        C  0.36554247  0.11008571  0.32980856    -0.02100
C134        C  0.39638076  0.08580079  0.35990264     0.02800
C135        C  0.39816954  0.16262997  0.46761950     0.37500
C136        C  0.35640915  0.09197136  0.28253888     0.37500
C137        C  0.41531695  0.04333449  0.34229180     0.35900
C138        C  0.33851037  0.21081325  0.40825293     0.35900
N139        N  0.42986772  0.00976882  0.32716483    -0.38900
N140        N  0.32377938  0.24427894  0.42346575    -0.38900
N141        N  0.34955626  0.07716716  0.24490533    -0.38400
N142        N  0.40538892  0.17760318  0.50509099    -0.38400
C143        C  0.09625587  0.39922870  0.40704455    -0.05000
C144        C  0.08870718  0.35566885  0.39202588    -0.02100
C145        C  0.11914209  0.33404004  0.35950147     0.02800
C146        C  0.15781385  0.35594794  0.34203186    -0.05000
C147        C  0.16529744  0.39955189  0.35694264    -0.02100
C148        C  0.13480623  0.42122088  0.38939147     0.02800
C149        C  0.04847108  0.33375862  0.40832734     0.37500
C150        C  0.20554762  0.42145264  0.34066976     0.37500
C151        C  0.14478588  0.46553180  0.40606259     0.35900
C152        C  0.10899218  0.28985987  0.34255976     0.35900
N153        N  0.15342294  0.50078207  0.41896358    -0.38900
N154        N  0.10018106  0.25473930  0.32939737    -0.38900
N155        N  0.23769289  0.43878142  0.32782591    -0.38400
N156        N  0.01633724  0.31643397  0.42120950    -0.38400
C157        C  0.40948159  0.39587862  0.09351932    -0.05000
C158        C  0.39006683  0.35510348  0.08198855    -0.02100
C159        C  0.35805540  0.33682149  0.11316815     0.02800
C160        C  0.34523277  0.35878934  0.15656878    -0.05000
C161        C  0.36493259  0.39936985  0.16829353    -0.02100
C162        C  0.39652292  0.41792583  0.13683864     0.02800
C163        C  0.40142101  0.33264563  0.03691443     0.37500
C164        C  0.35437808  0.42128409  0.21386430     0.37500
C165        C  0.41656213  0.45920016  0.15025095     0.35900
C166        C  0.33721681  0.29606966  0.09928248     0.35900
N167        N  0.43199748  0.49218894  0.16189939    -0.38900
N168        N  0.32094718  0.26360095  0.08726045    -0.38900
N169        N  0.34615776  0.43867716  0.25022516    -0.38400
N170        N  0.40846212  0.31534077  0.49997128    -0.38400
O171        O  0.43511860  0.45807714  0.55031473    -0.79800
O172        O  0.10462595  0.04803503  0.52315177    -0.79800
O173        O  0.03751943  0.44854184  0.56936982    -0.79900
O174        O  0.46226079  0.04766065  0.57201181    -0.79800
O175        O  0.09820982  0.45694443  0.52446134    -0.79900
O176        O  0.40596864  0.04257717  0.52557586    -0.79800
O177        O  0.04814066  0.05342086  0.57335942    -0.79800
O178        O  0.47227028  0.39359003  0.53715049    -0.79900
C179        C  0.44069754  0.41610547  0.55880267     1.09900
C180        C  0.08790162  0.06182106  0.56304768     1.09700
C181        C  0.07995855  0.44175519  0.56219990     1.09900
C182        C  0.42152722  0.05734816  0.56460096     1.09800
O183        O  0.44650730  0.03407137  0.93131798    -0.79800
O184        O  0.05496750  0.46316196  0.92938393    -0.79900
O185        O  0.45932566  0.43445957  0.95182145    -0.79800
O186        O  0.04926861  0.10224383  0.98130810    -0.79800
O187        O  0.06096020  0.04863151  0.92913294    -0.79900
O188        O  0.39221406  0.46946376  0.96393176    -0.79800
O189        O  0.45633888  0.09308007  0.97625057    -0.79800
O190        O  0.04659462  0.40879587  0.97715970    -0.79900
Co191      Co  0.44500161  0.49562385  0.48890291     1.51500
Co192      Co  0.07637131  0.00437014  0.97702638     1.51500
Co193      Co  0.49781301  0.44585380  0.51281397     1.51600
Co194      Co  0.50363279  0.07171084  0.02518950     1.51500
O195        O  0.51105830  0.50964353  0.49991205    -1.41800
C196        C  0.44042822  0.07556664  0.93820275     1.09800
C197        C  0.06344135  0.42353425  0.93895112     1.09900
C198        C  0.41617101  0.43895206  0.94274927     1.09800
C199        C  0.06469156  0.08839286  0.94079015     1.09800
O200        O  0.36212281  0.28438303  0.78682157    -0.79800
O201        O  0.19316273  0.20588310  0.82060117    -0.79800
O202        O  0.20795059  0.34563116  0.77245533    -0.79900
O203        O  0.29773230  0.16100182  0.77388364    -0.79800
O204        O  0.19926816  0.29137098  0.82028986    -0.79900
O205        O  0.30741229  0.21990414  0.81899702    -0.79800
O206        O  0.20480573  0.15218310  0.76850812    -0.79800
O207        O  0.29506831  0.31974298  0.79828765    -0.79900
C208        C  0.33815395  0.31508901  0.80767009     1.09900
C209        C  0.18932038  0.16612991  0.80897424     1.09700
C210        C  0.19084502  0.33097660  0.81058201     1.09900
C211        C  0.31349948  0.17842029  0.81204860     1.09800
O212        O  0.34870310  0.21063440  0.72652923    -0.79800
O213        O  0.15657399  0.29667440  0.72423707    -0.79900
O214        O  0.28273000  0.35989682  0.71243925    -0.79800
O215        O  0.20689972  0.20031204  0.67661401    -0.79800
O216        O  0.15008376  0.20577682  0.72637309    -0.79900
O217        O  0.32029769  0.29531485  0.70090916    -0.79800
O218        O  0.29292130  0.20611703  0.67945158    -0.79800
O219        O  0.21767362  0.30481973  0.67991770    -0.79900
Co220      Co  0.30929804  0.25800040  0.76229056     1.51500
Co221      Co  0.17800205  0.25012864  0.77263791     1.51700
Co222      Co  0.25681097  0.30795670  0.73697142     1.51600
Co223      Co  0.25068858  0.18257456  0.72478711     1.51500
O224        O  0.24330476  0.24432071  0.75038690    -1.41800
C225        C  0.33329216  0.19543705  0.68765595     1.09800
C226        C  0.17514063  0.31153553  0.68652363     1.09900
C227        C  0.31475376  0.33718514  0.69175943     1.09800
C228        C  0.16714324  0.19176305  0.68672037     1.09800
C229        C  0.10929118  0.09508865  0.59372516    -0.05000
C230        C  0.15242746  0.08632465  0.61391409    -0.02100
C231        C  0.17084556  0.11777348  0.64506950     0.02800
C232        C  0.14596068  0.15830755  0.65616322    -0.05000
C233        C  0.10272206  0.16691533  0.63624340    -0.02100
C234        C  0.08445024  0.13564074  0.60484153     0.02800
C235        C  0.17726178  0.04454690  0.60355880     0.37500
C236        C  0.07750513  0.20831284  0.64740215     0.37500
C237        C  0.04054801  0.14629955  0.58282574     0.35900
C238        C  0.21493497  0.10738403  0.66681354     0.35900
N239        N  0.00557071  0.15533940  0.56556213    -0.38900
N240        N  0.25009437  0.09865259  0.68383034    -0.38900
N241        N  0.05745470  0.24131041  0.65645521    -0.38400
N242        N  0.19704310  0.01121191  0.59536979    -0.38400
C243        C  0.16064844  0.13997133  0.84130749    -0.05000
C244        C  0.11838853  0.12477754  0.82534548    -0.02100
C245        C  0.08484879  0.11287754  0.85865509     0.02800
C246        C  0.09323778  0.11467480  0.90845517    -0.05000
C247        C  0.13543055  0.12999717  0.92441847    -0.02100
C248        C  0.16898535  0.14185982  0.89112004     0.02800
C249        C  0.10824512  0.12144715  0.77482437     0.37500
C250        C  0.14538879  0.13373066  0.97494827     0.37500
C251        C  0.21284816  0.15547070  0.90840299     0.35900
C252        C  0.04085756  0.09954645  0.84143956     0.35900
N253        N  0.24765552  0.16592485  0.92292559    -0.38900
N254        N  0.00590599  0.08938285  0.82702080    -0.38900
N255        N  0.15576169  0.13845289  0.01452314    -0.38400
N256        N  0.09768456  0.11713321  0.73524981    -0.38400
C257        C  0.14854547  0.34250642  0.65361560    -0.05000
C258        C  0.11265236  0.37136470  0.67160449    -0.02100
C259        C  0.09330428  0.40587588  0.64303965     0.02800
C260        C  0.10668182  0.41051267  0.59465903    -0.05000
C261        C  0.14200941  0.38118038  0.57632888    -0.02100
C262        C  0.16238410  0.34747398  0.60536170     0.02800
C263        C  0.09471561  0.36621131  0.71959699     0.37500
C264        C  0.15798678  0.38483312  0.52737702     0.37500
C265        C  0.19634256  0.31650290  0.58432913     0.35900
C266        C  0.06124714  0.43828582  0.66479818     0.35900
N267        N  0.22312971  0.29185172  0.56708469    -0.38900
N268        N  0.03629255  0.46431753  0.68268213    -0.38900
N269        N  0.17201489  0.38714171  0.48875006    -0.38400
N270        N  0.07897750  0.36248152  0.75731222    -0.38400
C271        C  0.35693684  0.16095088  0.65572689    -0.05000
C272        C  0.33510215  0.14563845  0.61315339    -0.02100
C273        C  0.35447212  0.11006022  0.58552149     0.02800
C274        C  0.39721523  0.09020974  0.59791034    -0.05000
C275        C  0.41903875  0.10539585  0.64055562    -0.02100
C276        C  0.39876200  0.13978243  0.66929429     0.02800
C277        C  0.29217757  0.16592532  0.59631774     0.37500
C278        C  0.46294693  0.08634743  0.65616206     0.37500
C279        C  0.42108429  0.15232591  0.71353327     0.35900
C280        C  0.32995577  0.09450465  0.54387164     0.35900
N281        N  0.43906435  0.16166074  0.74888919    -0.38900
N282        N  0.31000523  0.08240970  0.51083077    -0.38900
N283        N  0.49790625  0.07188774  0.66921174    -0.38400
N284        N  0.25807956  0.18148843  0.58220544    -0.38400
C285        C  0.39554331  0.40846194  0.90733076    -0.05000
C286        C  0.41990857  0.39444855  0.86551060    -0.02100
C287        C  0.40158360  0.36336588  0.83358882     0.02800
C288        C  0.35870397  0.34566774  0.84304163    -0.05000
C289        C  0.33427983  0.35975945  0.88478668    -0.02100
C290        C  0.35265264  0.39076463  0.91677190     0.02800
C291        C  0.46334733  0.41295839  0.85393547     0.37500
C292        C  0.29071928  0.34141956  0.89620110     0.37500
C293        C  0.32807775  0.40273436  0.96061992     0.35900
C294        C  0.42619459  0.35130650  0.78978531     0.35900
N295        N  0.30783854  0.41164309  0.49509003    -0.38900
N296        N  0.44582828  0.34189731  0.75483548    -0.38900
N297        N  0.25609836  0.32698850  0.90607552    -0.38400
N298        N  0.49785326  0.42753627  0.84389059    -0.38400
C299        C  0.40964898  0.10278217  0.90480868    -0.05000
C300        C  0.39054085  0.14511918  0.91931947    -0.02100
C301        C  0.35820806  0.16861944  0.89031624     0.02800
C302        C  0.34417176  0.15113580  0.84548013    -0.05000
C303        C  0.36325439  0.10878129  0.83097996    -0.02100
C304        C  0.39558963  0.08528161  0.85998585     0.02800
C305        C  0.40303861  0.16515530  0.96470389     0.37500
C306        C  0.35075657  0.08874737  0.78559121     0.37500
C307        C  0.41498375  0.04314389  0.84188244     0.35900
C308        C  0.33882503  0.21076723  0.90841335     0.35900
N309        N  0.43009309  0.00997078  0.82630435    -0.38900
N310        N  0.32368764  0.24394672  0.92395236    -0.38900
N311        N  0.34117786  0.07232825  0.74949678    -0.38400
N312        N  0.41263393  0.18157850  0.00078952    -0.38400
C313        C  0.09693969  0.39857555  0.90812268    -0.05000
C314        C  0.08890647  0.35528854  0.89245106    -0.02100
C315        C  0.11853072  0.33414589  0.85873732     0.02800
C316        C  0.15716076  0.35601047  0.84113053    -0.05000
C317        C  0.16507833  0.39936774  0.85665520    -0.02100
C318        C  0.13553323  0.42045574  0.89047223     0.02800
C319        C  0.04930641  0.33297759  0.90972876     0.37500
C320        C  0.20447460  0.42182584  0.83910644     0.37500
C321        C  0.14661653  0.46390782  0.90885820     0.35900
C322        C  0.10753656  0.29062549  0.84047469     0.35900
N323        N  0.15603530  0.49836641  0.92349411    -0.38900
N324        N  0.09818033  0.25610446  0.82596345    -0.38900
N325        N  0.23576190  0.43980083  0.82505769    -0.38400
N326        N  0.01782346  0.31515266  0.92352444    -0.38400
C327        C  0.41000948  0.39503088  0.59379092    -0.05000
C328        C  0.39026166  0.35446755  0.58212075    -0.02100
C329        C  0.35885399  0.33584364  0.61373282     0.02800
C330        C  0.34594644  0.35793034  0.65704421    -0.05000
C331        C  0.36562237  0.39854795  0.66867826    -0.02100
C332        C  0.39755831  0.41682969  0.63740012     0.02800
C333        C  0.40051753  0.33265845  0.53643334     0.37500
C334        C  0.35468519  0.42076791  0.71399051     0.37500
C335        C  0.41868424  0.45740248  0.65137478     0.35900
C336        C  0.33906240  0.29437582  0.60057104     0.35900
N337        N  0.43518095  0.48972121  0.66349409    -0.38900
N338        N  0.32386618  0.26119155  0.58920658    -0.38900
N339        N  0.34609111  0.43844273  0.75011306    -0.38400
N340        N  0.41039302  0.31474837  0.00100885    -0.38400
O341        O  0.43463322  0.95870464  0.04962309    -0.79800
O342        O  0.10436081  0.54877569  0.02325028    -0.79800
O343        O  0.03716448  0.94957831  0.06980655    -0.79900
O344        O  0.46164365  0.54814821  0.07078101    -0.79800
O345        O  0.09810004  0.95776662  0.02525588    -0.79900
O346        O  0.40569740  0.54329501  0.02395900    -0.79800
O347        O  0.04766919  0.55409812  0.07317942    -0.79800
O348        O  0.47227455  0.89425137  0.03761015    -0.79900
C349        C  0.44036869  0.91682059  0.05864817     1.09900
C350        C  0.08738163  0.56275192  0.06296471     1.09700
C351        C  0.07966729  0.94288438  0.06303147     1.09900
C352        C  0.42117669  0.55857445  0.06275943     1.09800
O353        O  0.44578985  0.53386815  0.43225806    -0.79800
O354        O  0.05408104  0.96345231  0.42902280    -0.79900
O355        O  0.45913499  0.93455491  0.45182107    -0.79800
O356        O  0.04911839  0.60196085  0.48169750    -0.79800
O357        O  0.06036733  0.54853751  0.42935143    -0.79900
O358        O  0.39195371  0.96898058  0.46492892    -0.79800
O359        O  0.45580368  0.59284677  0.47722515    -0.79800
O360        O  0.04627827  0.90869702  0.47632493    -0.79900
Co361      Co  0.44510034  0.99602674  0.98810210     1.51500
Co362      Co  0.07612033  0.50403662  0.47680789     1.51500
Co363      Co  0.49782929  0.94631066  0.01295199     1.51600
Co364      Co  0.50370017  0.57129829  0.52579212     1.51500
O365        O  0.51110801  0.00999367  0.99953525    -1.41800
C366        C  0.43961259  0.57532382  0.43924046     1.09800
C367        C  0.06277770  0.92381099  0.43813215     1.09900
C368        C  0.41593672  0.93886070  0.44310797     1.09800
C369        C  0.06437910  0.58820332  0.44108501     1.09800
O370        O  0.36247862  0.78509148  0.28531759    -0.79800
O371        O  0.19340473  0.70653707  0.32084575    -0.79800
O372        O  0.20831909  0.84605332  0.27324584    -0.79900
O373        O  0.29800462  0.66135876  0.27339760    -0.79800
O374        O  0.20005946  0.79156114  0.32077043    -0.79900
O375        O  0.30837472  0.72043884  0.31811349    -0.79800
O376        O  0.20450184  0.65279649  0.26886383    -0.79800
O377        O  0.29538942  0.81982295  0.29815728    -0.79900
C378        C  0.33857546  0.81538417  0.30695586     1.09900
C379        C  0.18913206  0.66686307  0.30932268     1.09700
C380        C  0.19151619  0.83117227  0.31139141     1.09900
C381        C  0.31439175  0.67894703  0.31124687     1.09800
O382        O  0.34823338  0.71134644  0.22489629    -0.79800
O383        O  0.15627391  0.79771323  0.22520948    -0.79900
O384        O  0.28258120  0.86055805  0.21270792    -0.79800
O385        O  0.20599986  0.70101522  0.17697551    -0.79800
O386        O  0.14937659  0.70670912  0.22693781    -0.79900
O387        O  0.31950566  0.79589912  0.19988431    -0.79800
O388        O  0.29194778  0.70617471  0.17843652    -0.79800
O389        O  0.21711998  0.80581373  0.18046145    -0.79900
Co390      Co  0.30934804  0.75855381  0.26136586     1.51500
Co391      Co  0.17800518  0.75080992  0.27313119     1.51700
Co392      Co  0.25674268  0.80850204  0.23712979     1.51600
Co393      Co  0.25025152  0.68301469  0.22471095     1.51500
O394        O  0.24318425  0.74481475  0.25029247    -1.41800
C395        C  0.33266010  0.69643578  0.18594427     1.09800
C396        C  0.17466598  0.81272126  0.18747911     1.09900
C397        C  0.31419076  0.83787920  0.19132125     1.09800
C398        C  0.16618322  0.69271545  0.18715703     1.09800
C399        C  0.10853209  0.59625833  0.09355350    -0.05000
C400        C  0.15182007  0.58779689  0.11342937    -0.02100
C401        C  0.16985390  0.61896449  0.14515129     0.02800
C402        C  0.14483564  0.65937725  0.15646794    -0.05000
C403        C  0.10165731  0.66800220  0.13631080    -0.02100
C404        C  0.08343624  0.63661706  0.10491777     0.02800
C405        C  0.17736407  0.54666972  0.10190035     0.37500
C406        C  0.07651412  0.70953718  0.14701271     0.37500
C407        C  0.03932456  0.64691253  0.08317916     0.35900
C408        C  0.21366363  0.60829604  0.16736676     0.35900
N409        N  0.00415080  0.65554609  0.06614392    -0.38900
N410        N  0.24855189  0.59926609  0.18483201    -0.38900
N411        N  0.05644019  0.74265200  0.15548872    -0.38400
N412        N  0.19773456  0.51391842  0.09256207    -0.38400
C413        C  0.16027291  0.64100936  0.34187854    -0.05000
C414        C  0.11871310  0.62442277  0.32562506    -0.02100
C415        C  0.08523893  0.61185971  0.35871096     0.02800
C416        C  0.09296196  0.61443942  0.40863874    -0.05000
C417        C  0.13451326  0.63102326  0.42488552    -0.02100
C418        C  0.16782526  0.64393389  0.39182044     0.02800
C419        C  0.10905692  0.62062437  0.27503137     0.37500
C420        C  0.14442924  0.63434048  0.47545480     0.37500
C421        C  0.21053390  0.66006186  0.40957338     0.35900
C422        C  0.04213470  0.59661039  0.34103813     0.35900
N423        N  0.24430001  0.67282857  0.42442977    -0.38900
N424        N  0.00797820  0.58471961  0.32623874    -0.38900
N425        N  0.15499751  0.63856761  0.51504016    -0.38400
N426        N  0.09885591  0.61597491  0.23538986    -0.38400
C427        C  0.14804191  0.84391770  0.15488610    -0.05000
C428        C  0.11258570  0.87317234  0.17309038    -0.02100
C429        C  0.09260447  0.90714765  0.14416892     0.02800
C430        C  0.10632362  0.91192875  0.09587091    -0.05000
C431        C  0.14200150  0.88286039  0.07781026    -0.02100
C432        C  0.16155569  0.84855530  0.10653925     0.02800
C433        C  0.09585820  0.86902628  0.22170646     0.37500
C434        C  0.15939921  0.88751416  0.02952691     0.37500
C435        C  0.19398346  0.81636096  0.08500215     0.35900
C436        C  0.05925733  0.93863919  0.16538525     0.35900
N437        N  0.21931368  0.79052662  0.06735643    -0.38900
N438        N  0.03305047  0.96376836  0.18280942    -0.38900
N439        N  0.17466126  0.89078194  0.99153391    -0.38400
N440        N  0.08112972  0.86625369  0.25999253    -0.38400
C441        C  0.35698870  0.66349125  0.15271869    -0.05000
C442        C  0.33523549  0.64836316  0.11000676    -0.02100
C443        C  0.35552389  0.61396730  0.08128698     0.02800
C444        C  0.39738468  0.59285456  0.09482696    -0.05000
C445        C  0.41913306  0.60807068  0.13748499    -0.02100
C446        C  0.39966549  0.64354349  0.16521471     0.02800
C447        C  0.29141911  0.66753443  0.09427563     0.37500
C448        C  0.46207559  0.58779543  0.15428026     0.37500
C449        C  0.42398412  0.65882799  0.20711985     0.35900
C450        C  0.33317847  0.60137497  0.03707651     0.35900
N451        N  0.44376713  0.67066054  0.24039105    -0.38900
N452        N  0.31516923  0.59198897  0.00175311    -0.38900
N453        N  0.49619730  0.57223903  0.16833521    -0.38400
N454        N  0.25654503  0.68212487  0.08113254    -0.38400
C455        C  0.39542448  0.90856912  0.40736217    -0.05000
C456        C  0.42005673  0.89462587  0.36565129    -0.02100
C457        C  0.40202948  0.86349574  0.33355777     0.02800
C458        C  0.35913646  0.84568854  0.34266884    -0.05000
C459        C  0.33449706  0.85966332  0.38435817    -0.02100
C460        C  0.35256700  0.89071320  0.41649784     0.02800
C461        C  0.46349059  0.91326203  0.35431164     0.37500
C462        C  0.29098315  0.84115753  0.39561395     0.37500
C463        C  0.32770780  0.90251700  0.46021784     0.35900
C464        C  0.42699863  0.85153615  0.28994936     0.35900
N465        N  0.30848704  0.91202861  0.99562922    -0.38900
N466        N  0.44702965  0.84228609  0.25519552    -0.38900
N467        N  0.25640756  0.82662386  0.40545028    -0.38400
N468        N  0.49797733  0.92792788  0.34437710    -0.38400
C469        C  0.40885256  0.60252930  0.40567321    -0.05000
C470        C  0.38865924  0.64428808  0.42055016    -0.02100
C471        C  0.35764787  0.66846365  0.39054952     0.02800
C472        C  0.34521373  0.65175767  0.34477206    -0.05000
C473        C  0.36554002  0.61007996  0.32981711    -0.02100
C474        C  0.39638431  0.58580271  0.35990839     0.02800
C475        C  0.39819149  0.66264408  0.46761281     0.37500
C476        C  0.35639347  0.59195900  0.28255477     0.37500
C477        C  0.41533082  0.54334041  0.34229395     0.35900
C478        C  0.33849363  0.71080375  0.40826436     0.35900
N479        N  0.42989176  0.50977878  0.32716491    -0.38900
N480        N  0.32374925  0.74426336  0.42348116    -0.38900
N481        N  0.34952972  0.57714633  0.24492653    -0.38400
N482        N  0.40542449  0.67762709  0.50507701    -0.38400
C483        C  0.09625644  0.89923302  0.40705251    -0.05000
C484        C  0.08870214  0.85567259  0.39203736    -0.02100
C485        C  0.11913903  0.83404055  0.35951464     0.02800
C486        C  0.15780799  0.85594511  0.34203603    -0.05000
C487        C  0.16529024  0.89955437  0.35694076    -0.02100
C488        C  0.13480445  0.92122254  0.38939550     0.02800
C489        C  0.04846356  0.83376784  0.40833631     0.37500
C490        C  0.20553263  0.92145770  0.34065150     0.37500
C491        C  0.14479075  0.96553145  0.40606872     0.35900
C492        C  0.10899065  0.78985516  0.34258549     0.35900
N493        N  0.15343196  0.00077941  0.41897352    -0.38900
N494        N  0.10018237  0.75473012  0.32943424    -0.38900
N495        N  0.23767022  0.93879051  0.32779400    -0.38400
N496        N  0.01632615  0.81644865  0.42121545    -0.38400
C497        C  0.40947699  0.89587003  0.09351672    -0.05000
C498        C  0.39005722  0.85509616  0.08198492    -0.02100
C499        C  0.35804327  0.83681420  0.11316293     0.02800
C500        C  0.34522226  0.85878463  0.15656121    -0.05000
C501        C  0.36491962  0.89936254  0.16828835    -0.02100
C502        C  0.39651509  0.91791634  0.13683747     0.02800
C503        C  0.40141216  0.83264059  0.03690883     0.37500
C504        C  0.35436206  0.92128074  0.21385632     0.37500
C505        C  0.41656116  0.95918646  0.15025316     0.35900
C506        C  0.33720670  0.79606211  0.09927564     0.35900
N507        N  0.43200309  0.99217119  0.16190460    -0.38900
N508        N  0.32093947  0.76359330  0.08725255    -0.38900
N509        N  0.34613816  0.93867549  0.25021501    -0.38400
N510        N  0.40844434  0.81534855  0.49996403    -0.38400
O511        O  0.43510805  0.95808316  0.55031296    -0.79800
O512        O  0.10462531  0.54802603  0.52314486    -0.79800
O513        O  0.03752468  0.94855447  0.56938211    -0.79900
O514        O  0.46226535  0.54765518  0.57201625    -0.79800
O515        O  0.09821252  0.95695363  0.52447083    -0.79900
O516        O  0.40597367  0.54257127  0.52558028    -0.79800
O517        O  0.04814258  0.55340774  0.57335647    -0.79800
O518        O  0.47225899  0.89359365  0.53715473    -0.79900
C519        C  0.44068689  0.91610440  0.55880091     1.09900
C520        C  0.08790516  0.56181328  0.56304463     1.09700
C521        C  0.07996239  0.94176886  0.56220871     1.09900
C522        C  0.42153334  0.55734031  0.56460362     1.09800
O523        O  0.44650692  0.53407686  0.93131281    -0.79800
O524        O  0.05498303  0.96315800  0.92939505    -0.79900
O525        O  0.45933008  0.93444642  0.95183350    -0.79800
O526        O  0.04925805  0.60224451  0.98130168    -0.79800
O527        O  0.06094307  0.54863242  0.92912608    -0.79900
O528        O  0.39221700  0.96945281  0.96393201    -0.79800
O529        O  0.45634391  0.59308703  0.97624233    -0.79800
O530        O  0.04660665  0.90879575  0.97717799    -0.79900
Co531      Co  0.44499419  0.99562624  0.48890127     1.51500
Co532      Co  0.07635798  0.50437095  0.97701785     1.51500
Co533      Co  0.49780483  0.94585407  0.51281686     1.51600
Co534      Co  0.50363497  0.57171980  0.02518404     1.51500
O535        O  0.51105229  0.00964314  0.49991101    -1.41800
C536        C  0.44043315  0.57557106  0.93819690     1.09800
C537        C  0.06345484  0.92352828  0.93896766     1.09900
C538        C  0.41617865  0.93893702  0.94275640     1.09800
C539        C  0.06467686  0.58839256  0.94078022     1.09800
O540        O  0.36212651  0.78437633  0.78681730    -0.79800
O541        O  0.19316281  0.70587422  0.82060049    -0.79800
O542        O  0.20795397  0.84562479  0.77247131    -0.79900
O543        O  0.29772998  0.66099704  0.77388749    -0.79800
O544        O  0.19927053  0.79135969  0.82029673    -0.79900
O545        O  0.30741525  0.71990106  0.81899703    -0.79800
O546        O  0.20480468  0.65217568  0.76850656    -0.79800
O547        O  0.29507212  0.81973082  0.79829931    -0.79900
C548        C  0.33816115  0.81507738  0.80767658     1.09900
C549        C  0.18931945  0.66612222  0.80897528     1.09700
C550        C  0.19085060  0.83096465  0.81059316     1.09900
C551        C  0.31349886  0.67841894  0.81204748     1.09800
O552        O  0.34870541  0.71062862  0.72653380    -0.79800
O553        O  0.15657602  0.79667419  0.72424310    -0.79900
O554        O  0.28273396  0.85989327  0.71245539    -0.79800
O555        O  0.20690085  0.70030552  0.67661434    -0.79800
O556        O  0.15008312  0.70577267  0.72637162    -0.79900
O557        O  0.32029406  0.79531029  0.70090760    -0.79800
O558        O  0.29292387  0.70610987  0.67945553    -0.79800
O559        O  0.21767773  0.80482180  0.67992808    -0.79900
Co560      Co  0.30929952  0.75799515  0.76228925     1.51500
Co561      Co  0.17800254  0.75012257  0.77263974     1.51700
Co562      Co  0.25681447  0.80795166  0.73698245     1.51600
Co563      Co  0.25068795  0.68256826  0.72478860     1.51500
O564        O  0.24330523  0.74431439  0.75038932    -1.41800
C565        C  0.33329042  0.69542748  0.68765509     1.09800
C566        C  0.17514624  0.81154126  0.68653184     1.09900
C567        C  0.31475519  0.83717801  0.69176212     1.09800
C568        C  0.16714032  0.69175658  0.68672092     1.09800
C569        C  0.10929094  0.59508021  0.59371966    -0.05000
C570        C  0.15243550  0.58632366  0.61389940    -0.02100
C571        C  0.17084912  0.61777083  0.64506042     0.02800
C572        C  0.14596115  0.65829989  0.65616198    -0.05000
C573        C  0.10271738  0.66690349  0.63624961    -0.02100
C574        C  0.08444586  0.63562770  0.60484795     0.02800
C575        C  0.17728040  0.54455495  0.60352449     0.37500
C576        C  0.07749509  0.70829730  0.64741611     0.37500
C577        C  0.04054088  0.64628239  0.58283926     0.35900
C578        C  0.21493593  0.60737964  0.66680645     0.35900
N579        N  0.00555844  0.65531968  0.56558010    -0.38900
N580        N  0.25009530  0.59864580  0.68382860    -0.38900
N581        N  0.05744243  0.74128972  0.65647412    -0.38400
N582        N  0.19707069  0.51123054  0.59531940    -0.38400
C583        C  0.16064814  0.63996399  0.84130540    -0.05000
C584        C  0.11839757  0.62475085  0.82533798    -0.02100
C585        C  0.08485295  0.61285363  0.85864023     0.02800
C586        C  0.09322426  0.61467123  0.90844447    -0.05000
C587        C  0.13540862  0.63001065  0.92441368    -0.02100
C588        C  0.16896782  0.64186835  0.89112304     0.02800
C589        C  0.10827535  0.62139484  0.77481390     0.37500
C590        C  0.14535012  0.63376231  0.97494576     0.37500
C591        C  0.21282513  0.65548881  0.90841374     0.35900
C592        C  0.04087306  0.59950070  0.84141380     0.35900
N593        N  0.24762683  0.66594918  0.92294566    -0.38900
N594        N  0.00593270  0.58931877  0.82698265    -0.38900
N595        N  0.15571023  0.63850032  0.01452336    -0.38400
N596        N  0.09773234  0.61705828  0.73523561    -0.38400
C597        C  0.14855545  0.84251883  0.65362760    -0.05000
C598        C  0.11266493  0.87138046  0.67161837    -0.02100
C599        C  0.09331407  0.90589133  0.64305339     0.02800
C600        C  0.10669059  0.91052510  0.59467211    -0.05000
C601        C  0.14201801  0.88119716  0.57634150    -0.02100
C602        C  0.16239509  0.84749003  0.60537443     0.02800
C603        C  0.09473691  0.86623180  0.71961597     0.37500
C604        C  0.15799751  0.88485103  0.52738968     0.37500
C605        C  0.19635847  0.81652442  0.58434169     0.35900
C606        C  0.06125871  0.93830122  0.66481233     0.35900
N607        N  0.22315090  0.79187772  0.56709818    -0.38900
N608        N  0.03630441  0.96433382  0.68269633    -0.38900
N609        N  0.17202461  0.88716220  0.48876397    -0.38400
N610        N  0.07900818  0.86250458  0.75733525    -0.38400
C611        C  0.35693951  0.66094056  0.65573346    -0.05000
C612        C  0.33510423  0.64563000  0.61315792    -0.02100
C613        C  0.35447840  0.61005444  0.58552240     0.02800
C614        C  0.39721916  0.59020409  0.59791449    -0.05000
C615        C  0.41904209  0.60538728  0.64055987    -0.02100
C616        C  0.39876218  0.63977335  0.66930143     0.02800
C617        C  0.29217593  0.66591406  0.59632353     0.37500
C618        C  0.46295313  0.58634242  0.65616619     0.37500
C619        C  0.42108113  0.65231105  0.71354180     0.35900
C620        C  0.32996734  0.59450711  0.54386669     0.35900
N621        N  0.43905915  0.66164085  0.74890406    -0.38900
N622        N  0.31002123  0.58241840  0.51081835    -0.38900
N623        N  0.49791236  0.57188744  0.66921320    -0.38400
N624        N  0.25807921  0.68147329  0.58221520    -0.38400
C625        C  0.39555146  0.90844249  0.90734316    -0.05000
C626        C  0.41992037  0.89442857  0.86552104    -0.02100
C627        C  0.40159322  0.86334766  0.83360144     0.02800
C628        C  0.35871409  0.84564878  0.84304850    -0.05000
C629        C  0.33429138  0.85973830  0.88480215    -0.02100
C630        C  0.35266660  0.89073996  0.91678453     0.02800
C631        C  0.46335885  0.91293874  0.85394834     0.37500
C632        C  0.29073230  0.84139554  0.89621472     0.37500
C633        C  0.32809650  0.90270217  0.96063882     0.35900
C634        C  0.42620621  0.85128731  0.78979770     0.35900
N635        N  0.30781933  0.91165545  0.49509017    -0.38900
N636        N  0.44584258  0.84187756  0.75484784    -0.38900
N637        N  0.25611216  0.82696376  0.90609005    -0.38400
N638        N  0.49786411  0.92751602  0.84390447    -0.38400
C639        C  0.40965315  0.60278843  0.90480270    -0.05000
C640        C  0.39053018  0.64511271  0.91932489    -0.02100
C641        C  0.35819438  0.66861273  0.89032126     0.02800
C642        C  0.34417598  0.65113386  0.84547758    -0.05000
C643        C  0.36327618  0.60879274  0.83096466    -0.02100
C644        C  0.39561309  0.58529299  0.85997128     0.02800
C645        C  0.40300800  0.66514053  0.96472097     0.37500
C646        C  0.35080321  0.58877032  0.78556079     0.37500
C647        C  0.41502548  0.54316711  0.84185794     0.35900
C648        C  0.33879481  0.71074922  0.90842806     0.35900
N649        N  0.43015063  0.51000492  0.82627059    -0.38900
N650        N  0.32364392  0.74391885  0.92397644    -0.38900
N651        N  0.34124414  0.57236284  0.74945502    -0.38400
N652        N  0.41258769  0.68155435  0.00081570    -0.38400
C653        C  0.09695217  0.89856653  0.90814393    -0.05000
C654        C  0.08891563  0.85527921  0.89247452    -0.02100
C655        C  0.11854248  0.83413259  0.85876516     0.02800
C656        C  0.15716730  0.85599924  0.84115164    -0.05000
C657        C  0.16508571  0.89935593  0.85667066    -0.02100
C658        C  0.13554754  0.92044239  0.89049582     0.02800
C659        C  0.04931067  0.83297435  0.90974822     0.37500
C660        C  0.20447217  0.92182008  0.83910844     0.37500
C661        C  0.14664270  0.96388714  0.90889638     0.35900
C662        C  0.10755251  0.79060422  0.84051765     0.35900
N663        N  0.15607046  0.99833634  0.92354740    -0.38900
N664        N  0.09820126  0.75607762  0.82602290    -0.38900
N665        N  0.23575103  0.93980134  0.82504540    -0.38400
N666        N  0.01782183  0.81515466  0.92353998    -0.38400
C667        C  0.40999492  0.89503750  0.59378601    -0.05000
C668        C  0.39024849  0.85446949  0.58211770    -0.02100
C669        C  0.35884788  0.83584203  0.61373235     0.02800
C670        C  0.34593925  0.85792945  0.65704630    -0.05000
C671        C  0.36560979  0.89854986  0.66867481    -0.02100
C672        C  0.39754021  0.91683481  0.63739576     0.02800
C673        C  0.40050242  0.83266439  0.53642824     0.37500
C674        C  0.35467433  0.92076929  0.71398678     0.37500
C675        C  0.41866104  0.95741206  0.65136568     0.35900
C676        C  0.33906583  0.79436710  0.60057588     0.35900
N677        N  0.43515343  0.98973419  0.66348132    -0.38900
N678        N  0.32388032  0.76117862  0.58921569    -0.38900
N679        N  0.34608118  0.93844540  0.75011194    -0.38400
N680        N  0.41038448  0.81474601  0.00100193    -0.38400
O681        O  0.93462815  0.45870963  0.04961806    -0.79800
O682        O  0.60436585  0.04877241  0.02325663    -0.79800
O683        O  0.53715521  0.44957972  0.06979427    -0.79900
O684        O  0.96164675  0.04814314  0.07078621    -0.79800
O685        O  0.59809275  0.45777011  0.02524696    -0.79900
O686        O  0.90570177  0.04328812  0.02396250    -0.79800
O687        O  0.54767399  0.05409448  0.07318535    -0.79800
O688        O  0.97226072  0.39425481  0.03759025    -0.79900
C689        C  0.94036223  0.41682511  0.05863625     1.09900
C690        C  0.58738346  0.06274841  0.06297228     1.09700
C691        C  0.57965862  0.44288339  0.06302293     1.09900
C692        C  0.92117869  0.05856782  0.06276345     1.09800
O693        O  0.94578870  0.03387161  0.43225622    -0.79800
O694        O  0.55408464  0.46345159  0.42901858    -0.79900
O695        O  0.95913854  0.43455125  0.45181091    -0.79800
O696        O  0.54911932  0.10196579  0.48169689    -0.79800
O697        O  0.56037129  0.04854172  0.42935047    -0.79900
O698        O  0.89195741  0.46897327  0.46492251    -0.79800
O699        O  0.95580181  0.09285150  0.47722086    -0.79800
O700        O  0.54628285  0.40869444  0.47631810    -0.79900
Co701      Co  0.94509370  0.49603209  0.98809731     1.51500
Co702      Co  0.57611975  0.00404092  0.47680920     1.51500
Co703      Co  0.99781969  0.44631386  0.01293633     1.51600
Co704      Co  0.00369726  0.07130353  0.52578929     1.51500
O705        O  0.01110199  0.50999785  0.99952891    -1.41800
C706        C  0.93960963  0.07532323  0.43923539     1.09800
C707        C  0.56278228  0.42381045  0.43812449     1.09900
C708        C  0.91594300  0.43885870  0.44310085     1.09800
C709        C  0.56438441  0.08820987  0.44108212     1.09800
O710        O  0.86247884  0.28508731  0.28531121    -0.79800
O711        O  0.69340374  0.20653600  0.32083673    -0.79800
O712        O  0.70831902  0.34605417  0.27323579    -0.79900
O713        O  0.79800306  0.16135806  0.27338775    -0.79800
O714        O  0.70006059  0.29156269  0.32076161    -0.79900
O715        O  0.80837017  0.22043800  0.31810507    -0.79800
O716        O  0.70449878  0.15279785  0.26885187    -0.79800
O717        O  0.79539121  0.31982535  0.29814419    -0.79900
C718        C  0.83857602  0.31538386  0.30694556     1.09900
C719        C  0.68912994  0.16686560  0.30931214     1.09700
C720        C  0.69151878  0.33116891  0.31138322     1.09900
C721        C  0.81439091  0.17894818  0.31123989     1.09800
O722        O  0.84823255  0.21134683  0.22488978    -0.79800
O723        O  0.65627249  0.29771540  0.22520130    -0.79900
O724        O  0.78257758  0.36056001  0.21269880    -0.79800
O725        O  0.70600171  0.20102108  0.17696532    -0.79800
O726        O  0.64937786  0.20671316  0.22692722    -0.79900
O727        O  0.81950686  0.29590031  0.19988156    -0.79800
O728        O  0.79194959  0.20617440  0.17842692    -0.79800
O729        O  0.71711562  0.30581664  0.18044991    -0.79900
Co730      Co  0.80934682  0.25855411  0.26135915     1.51500
Co731      Co  0.67800546  0.25081117  0.27312263     1.51700
Co732      Co  0.75674149  0.30850365  0.23711808     1.51600
Co733      Co  0.75025095  0.18301642  0.22470119     1.51500
O734        O  0.74318385  0.24481658  0.25028250    -1.41800
C735        C  0.83265964  0.19643694  0.18593635     1.09800
C736        C  0.67466166  0.31272175  0.18747025     1.09900
C737        C  0.81419416  0.33788446  0.19131330     1.09800
C738        C  0.66618529  0.19272156  0.18714513     1.09800
C739        C  0.60853376  0.09625541  0.09355618    -0.05000
C740        C  0.65181913  0.08779227  0.11344323    -0.02100
C741        C  0.66985362  0.11896451  0.14515376     0.02800
C742        C  0.64484083  0.15938347  0.15645872    -0.05000
C743        C  0.60166651  0.16801162  0.13628879    -0.02100
C744        C  0.58344369  0.13662134  0.10490693     0.02800
C745        C  0.67735394  0.04665537  0.10193191     0.37500
C746        C  0.57653618  0.20955917  0.14696552     0.37500
C747        C  0.53933201  0.14691295  0.08316705     0.35900
C748        C  0.71366573  0.10830173  0.16736675     0.35900
N749        N  0.50415622  0.15554473  0.06613252    -0.38900
N750        N  0.74855890  0.09927543  0.18482776    -0.38900
N751        N  0.55647272  0.24268451  0.15541832    -0.38400
N752        N  0.69771797  0.01389621  0.09261080    -0.38400
C753        C  0.66026806  0.14100815  0.34186667    -0.05000
C754        C  0.61869394  0.12445173  0.32562195    -0.02100
C755        C  0.58522320  0.11189189  0.35871428     0.02800
C756        C  0.59296628  0.11444623  0.40864101    -0.05000
C757        C  0.63453187  0.13100269  0.42487775    -0.02100
C758        C  0.66784182  0.14391050  0.39180579     0.02800
C759        C  0.60901554  0.12068055  0.27503161     0.37500
C760        C  0.64446654  0.13429858  0.47544357     0.37500
C761        C  0.71056701  0.16000976  0.40954960     0.35900
C762        C  0.54209920  0.09667788  0.34105279     0.35900
N763        N  0.74434459  0.17275114  0.42439708    -0.38900
N764        N  0.50792835  0.08481916  0.32626353    -0.38900
N765        N  0.65504979  0.13850783  0.51502911    -0.38400
N766        N  0.59879572  0.11605471  0.23538978    -0.38400
C767        C  0.64803303  0.34391466  0.15487511    -0.05000
C768        C  0.61257156  0.37316507  0.17307757    -0.02100
C769        C  0.59258843  0.40713804  0.14415808     0.02800
C770        C  0.60631013  0.41192732  0.09585745    -0.05000
C771        C  0.64199137  0.38285699  0.07780018    -0.02100
C772        C  0.66154506  0.34855347  0.10652676     0.02800
C773        C  0.59584168  0.36901361  0.22169201     0.37500
C774        C  0.65938571  0.38751392  0.02951574     0.37500
C775        C  0.69397109  0.31635787  0.08498975     0.35900
C776        C  0.55923335  0.43862349  0.16537087     0.35900
N777        N  0.71929953  0.29052195  0.06734201    -0.38900
N778        N  0.53301883  0.46374639  0.18279424    -0.38900
N779        N  0.67464511  0.39078540  0.99152024    -0.38400
N780        N  0.58111120  0.36623659  0.25997749    -0.38400
C781        C  0.85699123  0.16349078  0.15271240    -0.05000
C782        C  0.83524034  0.14836349  0.11000036    -0.02100
C783        C  0.85552724  0.11396198  0.08128548     0.02800
C784        C  0.89738614  0.09284812  0.09482876    -0.05000
C785        C  0.91913214  0.10806616  0.13748828    -0.02100
C786        C  0.89966585  0.14354043  0.16521380     0.02800
C787        C  0.79142948  0.16754045  0.09426058     0.37500
C788        C  0.96207234  0.08778837  0.15428708     0.37500
C789        C  0.92398130  0.15882505  0.20712117     0.35900
C790        C  0.83317987  0.10136302  0.03707811     0.35900
N791        N  0.94376168  0.17065709  0.24039445    -0.38900
N792        N  0.81516891  0.09196978  0.00175845    -0.38900
N793        N  0.99619293  0.07223103  0.16834618    -0.38400
N794        N  0.75655975  0.18213647  0.08111132    -0.38400
C795        C  0.89542715  0.40856486  0.40734899    -0.05000
C796        C  0.92006229  0.39462393  0.36564060    -0.02100
C797        C  0.90203269  0.36349130  0.33354673     0.02800
C798        C  0.85913952  0.34568876  0.34265685    -0.05000
C799        C  0.83449795  0.35966398  0.38434421    -0.02100
C800        C  0.85257236  0.39071364  0.41648712     0.02800
C801        C  0.96349580  0.41325873  0.35429910     0.37500
C802        C  0.79098195  0.34116301  0.39559903     0.37500
C803        C  0.82771289  0.40251270  0.46020807     0.35900
C804        C  0.92700548  0.35152633  0.28994154     0.35900
N805        N  0.80846421  0.41205927  0.99560046    -0.38900
N806        N  0.94703746  0.34226991  0.25519061    -0.38900
N807        N  0.75640600  0.32663263  0.40543319    -0.38400
N808        N  0.99798108  0.42792340  0.34436363    -0.38400
C809        C  0.90884547  0.10253050  0.40567018    -0.05000
C810        C  0.88865163  0.14428583  0.42054605    -0.02100
C811        C  0.85764696  0.16846582  0.39054125     0.02800
C812        C  0.84521414  0.15175829  0.34476305    -0.05000
C813        C  0.86553972  0.11008271  0.32980912    -0.02100
C814        C  0.89637986  0.08580079  0.35990527     0.02800
C815        C  0.89816978  0.16263519  0.46761467     0.37500
C816        C  0.85640441  0.09196582  0.28254329     0.37500
C817        C  0.91531768  0.04333296  0.34229489     0.35900
C818        C  0.83850203  0.21081299  0.40825054     0.35900
N819        N  0.92986943  0.00976895  0.32717135    -0.38900
N820        N  0.82376728  0.24427604  0.42346134    -0.38900
N821        N  0.84954938  0.07715767  0.24490944    -0.38400
N822        N  0.90539118  0.17761242  0.50508653    -0.38400
C823        C  0.59625937  0.39923397  0.40704430    -0.05000
C824        C  0.58870680  0.35567114  0.39203068    -0.02100
C825        C  0.61914182  0.33404075  0.35950411     0.02800
C826        C  0.65780860  0.35594602  0.34202881    -0.05000
C827        C  0.66529647  0.39955252  0.35693336    -0.02100
C828        C  0.63480609  0.42122259  0.38938507     0.02800
C829        C  0.54847290  0.33376298  0.40833820     0.37500
C830        C  0.70554450  0.42145109  0.34065465     0.37500
C831        C  0.64478919  0.46553521  0.40604999     0.35900
C832        C  0.60898932  0.28985772  0.34257108     0.35900
N833        N  0.65342711  0.50078715  0.41894688    -0.38900
N834        N  0.60017882  0.25473500  0.32941482    -0.38900
N835        N  0.73768791  0.43877790  0.32780597    -0.38400
N836        N  0.51634088  0.31644078  0.42122464    -0.38400
C837        C  0.90947373  0.39587218  0.09351038    -0.05000
C838        C  0.89005965  0.35509570  0.08198318    -0.02100
C839        C  0.85804735  0.33681508  0.11316019     0.02800
C840        C  0.84522196  0.35878489  0.15656123    -0.05000
C841        C  0.86492138  0.39936574  0.16828356    -0.02100
C842        C  0.89651168  0.41792167  0.13683043     0.02800
C843        C  0.90141815  0.33263490  0.03691204     0.37500
C844        C  0.85436561  0.42128086  0.21385313     0.37500
C845        C  0.91654901  0.45919712  0.15024037     0.35900
C846        C  0.83720717  0.29606359  0.09927554     0.35900
N847        N  0.93198208  0.49218671  0.16188780    -0.38900
N848        N  0.82093663  0.26359616  0.08725352    -0.38900
N849        N  0.84614418  0.43867558  0.25021472    -0.38400
N850        N  0.90845148  0.31533698  0.49996550    -0.38400
O851        O  0.93511132  0.45807472  0.55030989    -0.79800
O852        O  0.60462405  0.04803090  0.52314862    -0.79800
O853        O  0.53752447  0.44855084  0.56937409    -0.79900
O854        O  0.96226243  0.04766311  0.57201468    -0.79800
O855        O  0.59821507  0.45695139  0.52446498    -0.79900
O856        O  0.90597134  0.04257950  0.52557851    -0.79800
O857        O  0.54813940  0.05341660  0.57335657    -0.79800
O858        O  0.97226085  0.39358584  0.53714580    -0.79900
C859        C  0.94069059  0.41609679  0.55879684     1.09900
C860        C  0.58790289  0.06181688  0.56304158     1.09700
C861        C  0.57996375  0.44176264  0.56220550     1.09900
C862        C  0.92152752  0.05734898  0.56460006     1.09800
O863        O  0.94651190  0.03407563  0.93131610    -0.79800
O864        O  0.55497387  0.46316753  0.92938658    -0.79900
O865        O  0.95932121  0.43445788  0.95181523    -0.79800
O866        O  0.54926283  0.10224095  0.98130814    -0.79800
O867        O  0.56095210  0.04862860  0.92913288    -0.79900
O868        O  0.89220909  0.46946078  0.96392662    -0.79800
O869        O  0.95634469  0.09308438  0.97624808    -0.79800
O870        O  0.54659915  0.40880180  0.97716430    -0.79900
Co871      Co  0.94499632  0.49562081  0.48889978     1.51500
Co872      Co  0.57636529  0.00436723  0.97702537     1.51500
Co873      Co  0.99780621  0.44584803  0.51281009     1.51600
Co874      Co  0.00363740  0.07171457  0.02518847     1.51500
O875        O  0.01105351  0.50963777  0.49990988    -1.41800
C876        C  0.94043356  0.07556682  0.93819897     1.09800
C877        C  0.56344878  0.42354150  0.93894928     1.09900
C878        C  0.91616690  0.43895127  0.94274362     1.09800
C879        C  0.56468531  0.08838660  0.94078672     1.09800
O880        O  0.86212017  0.28438207  0.78681559    -0.79800
O881        O  0.69315583  0.20588121  0.82060149    -0.79800
O882        O  0.70794706  0.34562943  0.77245537    -0.79900
O883        O  0.79772915  0.16100045  0.77388670    -0.79800
O884        O  0.69926315  0.29136997  0.82029002    -0.79900
O885        O  0.80741099  0.21990384  0.81899705    -0.79800
O886        O  0.70480084  0.15218129  0.76850893    -0.79800
O887        O  0.79506614  0.31974212  0.79828297    -0.79900
C888        C  0.83815100  0.31508810  0.80766439     1.09900
C889        C  0.68931581  0.16612631  0.80897143     1.09700
C890        C  0.69084396  0.33097584  0.81057934     1.09900
C891        C  0.81349624  0.17842094  0.81204610     1.09800
O892        O  0.84869911  0.21063262  0.72652883    -0.79800
O893        O  0.65656827  0.29667430  0.72423787    -0.79900
O894        O  0.78272347  0.35989424  0.71243472    -0.79800
O895        O  0.70689504  0.20030973  0.67661416    -0.79800
O896        O  0.65007819  0.20577474  0.72637159    -0.79900
O897        O  0.82029110  0.29531265  0.70090474    -0.79800
O898        O  0.79291761  0.20611437  0.67945184    -0.79800
O899        O  0.71766726  0.30481603  0.67991704    -0.79900
Co900      Co  0.80929372  0.25799937  0.76228853     1.51500
Co901      Co  0.67799650  0.25012723  0.77263786     1.51700
Co902      Co  0.75680593  0.30795408  0.73696905     1.51600
Co903      Co  0.75068420  0.18257265  0.72478776     1.51500
O904        O  0.74330000  0.24431872  0.75038746    -1.41800
C905        C  0.83328730  0.19543599  0.68765727     1.09800
C906        C  0.67513343  0.31153425  0.68652607     1.09900
C907        C  0.81474696  0.33718079  0.69175524     1.09800
C908        C  0.66713796  0.19176205  0.68672180     1.09800
C909        C  0.60928838  0.09508689  0.59372052    -0.05000
C910        C  0.65242799  0.08632406  0.61390967    -0.02100
C911        C  0.67084198  0.11777267  0.64506651     0.02800
C912        C  0.64595735  0.15830410  0.65616141    -0.05000
C913        C  0.60271785  0.16691279  0.63624035    -0.02100
C914        C  0.58444867  0.13563711  0.60483812     0.02800
C915        C  0.67726453  0.04454734  0.60355012     0.37500
C916        C  0.57750090  0.20831148  0.64739715     0.37500
C917        C  0.54054656  0.14629519  0.58282243     0.35900
C918        C  0.71493071  0.10738300  0.66681169     0.35900
N919        N  0.50556694  0.15533473  0.56555773    -0.38900
N920        N  0.75009158  0.09865170  0.68383065    -0.38900
N921        N  0.55745191  0.24130819  0.65644690    -0.38400
N922        N  0.69704763  0.01121647  0.59535871    -0.38400
C923        C  0.66064380  0.13996631  0.84130668    -0.05000
C924        C  0.61838786  0.12476750  0.82534382    -0.02100
C925        C  0.58484711  0.11286685  0.85865124     0.02800
C926        C  0.59323360  0.11466853  0.90845365    -0.05000
C927        C  0.63542584  0.12999107  0.92441578    -0.02100
C928        C  0.66898014  0.14185547  0.89111870     0.02800
C929        C  0.60824993  0.12142751  0.77482133     0.37500
C930        C  0.64538685  0.13371896  0.97494557     0.37500
C931        C  0.71284378  0.15546548  0.90840164     0.35900
C932        C  0.54085869  0.09952773  0.84143416     0.35900
N933        N  0.74765177  0.16591838  0.92292343    -0.38900
N934        N  0.50591121  0.08935645  0.82701425    -0.38900
N935        N  0.65576436  0.13843618  0.01452092    -0.38400
N936        N  0.59769632  0.11710513  0.73524528    -0.38400
C937        C  0.64854109  0.34250847  0.65361701    -0.05000
C938        C  0.61265417  0.37137182  0.67160984    -0.02100
C939        C  0.59330932  0.40588746  0.64304499     0.02800
C940        C  0.60668660  0.41051841  0.59466225    -0.05000
C941        C  0.64200524  0.38118223  0.57633044    -0.02100
C942        C  0.66237764  0.34747143  0.60536377     0.02800
C943        C  0.59471782  0.36622205  0.71960225     0.37500
C944        C  0.65798067  0.38482984  0.52737832     0.37500
C945        C  0.69632842  0.31649434  0.58432798     0.35900
C946        C  0.56126094  0.43830423  0.66480552     0.35900
N947        N  0.72310874  0.29183829  0.56708290    -0.38900
N948        N  0.53631456  0.46434060  0.68268901    -0.38900
N949        N  0.67200633  0.38713581  0.48874886    -0.38400
N950        N  0.57898021  0.36249385  0.75731811    -0.38400
C951        C  0.85693516  0.16094844  0.65572765    -0.05000
C952        C  0.83510041  0.14563721  0.61315395    -0.02100
C953        C  0.85447218  0.11006110  0.58552168     0.02800
C954        C  0.89721620  0.09021048  0.59791158    -0.05000
C955        C  0.91903809  0.10539710  0.64055752    -0.02100
C956        C  0.89875870  0.13978312  0.66929662     0.02800
C957        C  0.79217400  0.16592238  0.59631827     0.37500
C958        C  0.96294792  0.08635064  0.65616364     0.37500
C959        C  0.92108013  0.15232487  0.71353556     0.35900
C960        C  0.82995923  0.09450667  0.54386953     0.35900
N961        N  0.93905918  0.16165931  0.74889402    -0.38900
N962        N  0.81001027  0.08241327  0.51082561    -0.38900
N963        N  0.99790702  0.07189357  0.66921328    -0.38400
N964        N  0.75807655  0.18148288  0.58220721    -0.38400
C965        C  0.89553943  0.40846074  0.90732365    -0.05000
C966        C  0.91990672  0.39444815  0.86550383    -0.02100
C967        C  0.90158212  0.36336402  0.83358369     0.02800
C968        C  0.85870231  0.34566574  0.84303383    -0.05000
C969        C  0.83427738  0.35975871  0.88478100    -0.02100
C970        C  0.85265039  0.39076289  0.91676534     0.02800
C971        C  0.96334453  0.41295900  0.85392851     0.37500
C972        C  0.79071674  0.34141819  0.89619404     0.37500
C973        C  0.82807690  0.40272912  0.96061513     0.35900
C974        C  0.92619602  0.35130061  0.78978267     0.35900
N975        N  0.80782680  0.41164804  0.49508143    -0.38900
N976        N  0.94583276  0.34188793  0.75483468    -0.38900
N977        N  0.75609622  0.32698776  0.90606848    -0.38400
N978        N  0.99784911  0.42753798  0.84388320    -0.38400
C979        C  0.90965273  0.10278599  0.90480651    -0.05000
C980        C  0.89054269  0.14512051  0.91931770    -0.02100
C981        C  0.85820804  0.16862021  0.89031610     0.02800
C982        C  0.84417318  0.15113595  0.84547974    -0.05000
C983        C  0.86325801  0.10878413  0.83097790    -0.02100
C984        C  0.89559481  0.08528470  0.85998272     0.02800
C985        C  0.90303991  0.16515672  0.96470267     0.37500
C986        C  0.85076322  0.08875136  0.78558622     0.37500
C987        C  0.91499105  0.04314807  0.84187841     0.35900
C988        C  0.83882241  0.21076583  0.90841396     0.35900
N989        N  0.93010233  0.00997644  0.82630004    -0.38900
N990        N  0.82368251  0.24394463  0.92395431    -0.38900
N991        N  0.84118692  0.07233406  0.74949146    -0.38400
N992        N  0.91263455  0.18157941  0.00078916    -0.38400
C993        C  0.59694245  0.39858150  0.90812554    -0.05000
C994        C  0.58890968  0.35529025  0.89245601    -0.02100
C995        C  0.61853237  0.33414924  0.85874182     0.02800
C996        C  0.65715840  0.35601132  0.84113140    -0.05000
C997        C  0.66507789  0.39937138  0.85664908    -0.02100
C998        C  0.63553477  0.42045903  0.89046788     0.02800
C999        C  0.54931321  0.33298126  0.90974025     0.37500
C1000       C  0.70446819  0.42183050  0.83909184     0.37500
C1001       C  0.64661953  0.46391393  0.90885127     0.35900
C1002       C  0.60753455  0.29062727  0.84048089     0.35900
N1003       N  0.65603891  0.49837201  0.92348402    -0.38900
N1004       N  0.59817694  0.25610687  0.82597070    -0.38900
N1005       N  0.73575127  0.43980844  0.82503485    -0.38400
N1006       N  0.51783112  0.31515480  0.92354162    -0.38400
C1007       C  0.91000210  0.39502878  0.59378379    -0.05000
C1008       C  0.89025059  0.35446310  0.58211453    -0.02100
C1009       C  0.85884283  0.33584175  0.61372561     0.02800
C1010       C  0.84593852  0.35792723  0.65703903    -0.05000
C1011       C  0.86561706  0.39854332  0.66867371    -0.02100
C1012       C  0.89755070  0.41682506  0.63739607     0.02800
C1013       C  0.90050711  0.33265514  0.53642635     0.37500
C1014       C  0.85468371  0.42076065  0.71398838     0.37500
C1015       C  0.91867635  0.45739795  0.65136796     0.35900
C1016       C  0.83904634  0.29437691  0.60056247     0.35900
N1017       N  0.93517255  0.48971887  0.66348685    -0.38900
N1018       N  0.82384521  0.26119484  0.58919660    -0.38900
N1019       N  0.84609322  0.43843404  0.75011291    -0.38400
N1020       N  0.91039397  0.31473384  0.00100766    -0.38400
O1021       O  0.93463690  0.95870918  0.04962410    -0.79800
O1022       O  0.60436819  0.54878111  0.02325463    -0.79800
O1023       O  0.53715911  0.94957423  0.06980569    -0.79900
O1024       O  0.96163902  0.54814375  0.07078209    -0.79800
O1025       O  0.59809480  0.95776471  0.02525558    -0.79900
O1026       O  0.90569183  0.54329145  0.02396097    -0.79800
O1027       O  0.54767587  0.55410414  0.07318146    -0.79800
O1028       O  0.97227744  0.89425594  0.03761311    -0.79900
C1029       C  0.94037444  0.91682740  0.05864768     1.09900
C1030       C  0.58738529  0.56275544  0.06296661     1.09700
C1031       C  0.57966349  0.94288169  0.06303114     1.09900
C1032       C  0.92116949  0.55857106  0.06276011     1.09800
O1033       O  0.94578665  0.53386595  0.43225527    -0.79800
O1034       O  0.55407475  0.96344928  0.42901867    -0.79900
O1035       O  0.95914149  0.93455655  0.45182481    -0.79800
O1036       O  0.54912119  0.60196740  0.48170116    -0.79800
O1037       O  0.56037385  0.54854397  0.42935531    -0.79900
O1038       O  0.89195970  0.96898140  0.46492871    -0.79800
O1039       O  0.95580139  0.59284299  0.47722350    -0.79800
O1040       O  0.54627282  0.90869289  0.47631861    -0.79900
Co1041     Co  0.94510502  0.99603051  0.98810102     1.51500
Co1042     Co  0.57612582  0.50404322  0.47681168     1.51500
Co1043     Co  0.99783340  0.94631472  0.01295305     1.51600
Co1044     Co  0.00369774  0.57129284  0.52578976     1.51500
O1045       O  0.01111301  0.00999733  0.99953439    -1.41800
C1046       C  0.93961110  0.57532076  0.43923945     1.09800
C1047       C  0.56277144  0.92380815  0.43812860     1.09900
C1048       C  0.91594206  0.93886494  0.44311297     1.09800
C1049       C  0.56438367  0.58821184  0.44109105     1.09800
O1050       O  0.86248527  0.78509532  0.28531862    -0.79800
O1051       O  0.69341022  0.70654365  0.32085033    -0.79800
O1052       O  0.70832623  0.84606059  0.27324936    -0.79900
O1053       O  0.79800664  0.66136462  0.27339839    -0.79800
O1054       O  0.70006679  0.79156818  0.32077377    -0.79900
O1055       O  0.80837961  0.72044427  0.31811465    -0.79800
O1056       O  0.70450468  0.65280354  0.26886816    -0.79800
O1057       O  0.79539723  0.81982749  0.29816061    -0.79900
C1058       C  0.83858216  0.81538626  0.30695668     1.09900
C1059       C  0.68913729  0.66687277  0.30932730     1.09700
C1060       C  0.69152264  0.83117935  0.31139528     1.09900
C1061       C  0.81439650  0.67895329  0.31125109     1.09800
O1062       O  0.84823706  0.71135017  0.22489665    -0.79800
O1063       O  0.65627811  0.79772073  0.22521469    -0.79900
O1064       O  0.78258714  0.86056487  0.21271319    -0.79800
O1065       O  0.70600296  0.70102276  0.17697955    -0.79800
O1066       O  0.64938050  0.70671684  0.22694352    -0.79900
O1067       O  0.81951031  0.79590522  0.19988669    -0.79800
O1068       O  0.79195015  0.70617999  0.17843832    -0.79800
O1069       O  0.71712308  0.80582284  0.18046596    -0.79900
Co1070     Co  0.80935345  0.75855889  0.26136731     1.51500
Co1071     Co  0.67801048  0.75081720  0.27313566     1.51700
Co1072     Co  0.75674855  0.80850869  0.23713332     1.51600
Co1073     Co  0.75025422  0.68302136  0.22471403     1.51500
O1074       O  0.74318874  0.74482153  0.25029514    -1.41800
C1075       C  0.83266426  0.69643919  0.18594575     1.09800
C1076       C  0.67467243  0.81272862  0.18748428     1.09900
C1077       C  0.81419845  0.83788577  0.19132299     1.09800
C1078       C  0.66618424  0.69272012  0.18716025     1.09800
C1079       C  0.60853798  0.59626298  0.09355763    -0.05000
C1080       C  0.65182476  0.58780191  0.11343687    -0.02100
C1081       C  0.66985756  0.61896863  0.14515656     0.02800
C1082       C  0.64484015  0.65938417  0.15647580    -0.05000
C1083       C  0.60165966  0.66800524  0.13631592    -0.02100
C1084       C  0.58344120  0.63662264  0.10492198     0.02800
C1085       C  0.67736735  0.54667294  0.10191080     0.37500
C1086       C  0.57651466  0.70953863  0.14702304     0.37500
C1087       C  0.53933105  0.64691776  0.08318045     0.35900
C1088       C  0.71366745  0.60830309  0.16737276     0.35900
N1089       N  0.50415815  0.65555198  0.06614284    -0.38900
N1090       N  0.74855727  0.59927348  0.18483752    -0.38900
N1091       N  0.55643744  0.74265130  0.15550241    -0.38400
N1092       N  0.69773700  0.51391988  0.09257634    -0.38400
C1093       C  0.66027503  0.64101653  0.34188344    -0.05000
C1094       C  0.61871637  0.62443496  0.32563164    -0.02100
C1095       C  0.58524010  0.61187256  0.35871786     0.02800
C1096       C  0.59296815  0.61444883  0.40864496    -0.05000
C1097       C  0.63451876  0.63102648  0.42489120    -0.02100
C1098       C  0.66783301  0.64394022  0.39182501     0.02800
C1099       C  0.60905765  0.62063547  0.27503801     0.37500
C1100       C  0.64444201  0.63433635  0.47546003     0.37500
C1101       C  0.71054157  0.66006707  0.40957747     0.35900
C1102       C  0.54213287  0.59663041  0.34104626     0.35900
N1103       N  0.74430684  0.67283237  0.42443246    -0.38900
N1104       N  0.50797449  0.58474588  0.32624870    -0.38900
N1105       N  0.65501489  0.63855624  0.51504456    -0.38400
N1106       N  0.59885578  0.61598550  0.23539646    -0.38400
C1107       C  0.64804446  0.84392402  0.15489032    -0.05000
C1108       C  0.61258457  0.87317650  0.17309319    -0.02100
C1109       C  0.59260136  0.90714701  0.14417050     0.02800
C1110       C  0.60631885  0.91193048  0.09587156    -0.05000
C1111       C  0.64200158  0.88286205  0.07781360    -0.02100
C1112       C  0.66155769  0.84856206  0.10654356     0.02800
C1113       C  0.59585771  0.86902994  0.22170888     0.37500
C1114       C  0.65939525  0.88751462  0.02952804     0.37500
C1115       C  0.69399032  0.81637007  0.08500821     0.35900
C1116       C  0.55924814  0.93863533  0.16538373     0.35900
N1117       N  0.71932400  0.79053812  0.06736325    -0.38900
N1118       N  0.53303525  0.96376136  0.18280587    -0.38900
N1119       N  0.67465565  0.89077969  0.99153363    -0.38400
N1120       N  0.58112791  0.86625843  0.25999513    -0.38400
C1121       C  0.85698863  0.66349317  0.15271940    -0.05000
C1122       C  0.83523563  0.64836443  0.11000902    -0.02100
C1123       C  0.85551980  0.61396757  0.08128921     0.02800
C1124       C  0.89738194  0.59285130  0.09482914    -0.05000
C1125       C  0.91912966  0.60806842  0.13748637    -0.02100
C1126       C  0.89966643  0.64354296  0.16521604     0.02800
C1127       C  0.79141858  0.66753872  0.09427773     0.37500
C1128       C  0.96207194  0.58778949  0.15428248     0.37500
C1129       C  0.92398629  0.65882821  0.20711732     0.35900
C1130       C  0.83317459  0.60137504  0.03708071     0.35900
N1131       N  0.94377203  0.67066210  0.24038824    -0.38900
N1132       N  0.81516307  0.59198891  0.00175649    -0.38900
N1133       N  0.99619130  0.57223136  0.16833764    -0.38400
N1134       N  0.75654619  0.68213057  0.08113589    -0.38400
C1135       C  0.89543264  0.90856914  0.40736326    -0.05000
C1136       C  0.92006579  0.89462554  0.36565614    -0.02100
C1137       C  0.90203903  0.86349592  0.33356127     0.02800
C1138       C  0.85914428  0.84569015  0.34267188    -0.05000
C1139       C  0.83450463  0.85966505  0.38435967    -0.02100
C1140       C  0.85257365  0.89071668  0.41650021     0.02800
C1141       C  0.96350115  0.91325921  0.35431753     0.37500
C1142       C  0.79099041  0.84115985  0.39561589     0.37500
C1143       C  0.82771100  0.90252374  0.46021684     0.35900
C1144       C  0.92700761  0.85153641  0.28995254     0.35900
N1145       N  0.80848113  0.91204573  0.99562249    -0.38900
N1146       N  0.94703826  0.84228722  0.25519895    -0.38900
N1147       N  0.75641517  0.82662608  0.40545208    -0.38400
N1148       N  0.99798909  0.92792338  0.34438347    -0.38400
C1149       C  0.90885056  0.60252970  0.40567224    -0.05000
C1150       C  0.88866145  0.64428749  0.42055051    -0.02100
C1151       C  0.85765240  0.66846663  0.39055072     0.02800
C1152       C  0.84521597  0.65176145  0.34477105    -0.05000
C1153       C  0.86553989  0.61008389  0.32981715    -0.02100
C1154       C  0.89638232  0.58580270  0.35990767     0.02800
C1155       C  0.89819271  0.66264131  0.46761367     0.37500
C1156       C  0.85639375  0.59196511  0.28255471     0.37500
C1157       C  0.91532324  0.54333808  0.34229289     0.35900
C1158       C  0.83850183  0.71080960  0.40826565     0.35900
N1159       N  0.92987826  0.50977628  0.32716402    -0.38900
N1160       N  0.82376279  0.74426864  0.42348225    -0.38900
N1161       N  0.84952932  0.57715358  0.24492306    -0.38400
N1162       N  0.90542580  0.67762258  0.50508056    -0.38400
C1163       C  0.59625377  0.89923292  0.40705016    -0.05000
C1164       C  0.58870092  0.85567349  0.39202909    -0.02100
C1165       C  0.61914007  0.83404407  0.35950758     0.02800
C1166       C  0.65781075  0.85595029  0.34203656    -0.05000
C1167       C  0.66529292  0.89955834  0.35694510    -0.02100
C1168       C  0.63480329  0.92122373  0.38940002     0.02800
C1169       C  0.54845936  0.83376781  0.40832116     0.37500
C1170       C  0.70553570  0.92146353  0.34066214     0.37500
C1171       C  0.64478888  0.96553012  0.40607942     0.35900
C1172       C  0.60899263  0.78986136  0.34257200     0.35900
N1173       N  0.65343009  0.00077723  0.41899020    -0.38900
N1174       N  0.60018413  0.75473757  0.32941424    -0.38900
N1175       N  0.73767296  0.93879773  0.32780919    -0.38400
N1176       N  0.51632109  0.81644802  0.42119460    -0.38400
C1177       C  0.90947929  0.89587421  0.09351947    -0.05000
C1178       C  0.89005722  0.85510636  0.08198393    -0.02100
C1179       C  0.85804433  0.83682281  0.11316305     0.02800
C1180       C  0.84522558  0.85879067  0.15656645    -0.05000
C1181       C  0.86492913  0.89936811  0.16829192    -0.02100
C1182       C  0.89652457  0.91792101  0.13684219     0.02800
C1183       C  0.90140495  0.83265278  0.03690537     0.37500
C1184       C  0.85437338  0.92128397  0.21386174     0.37500
C1185       C  0.91657679  0.95918676  0.15026000     0.35900
C1186       C  0.83720412  0.79607220  0.09927634     0.35900
N1187       N  0.93202429  0.99216770  0.16191280    -0.38900
N1188       N  0.82093527  0.76360449  0.08725391    -0.38900
N1189       N  0.84615105  0.93867910  0.25022203    -0.38400
N1190       N  0.90844776  0.81535418  0.49996721    -0.38400
O1191       O  0.93511249  0.95808577  0.55031446    -0.79800
O1192       O  0.60462890  0.54803355  0.52315156    -0.79800
O1193       O  0.53752073  0.94854830  0.56937567    -0.79900
O1194       O  0.96226190  0.54765173  0.57201440    -0.79800
O1195       O  0.59820909  0.95694920  0.52446383    -0.79900
O1196       O  0.90596999  0.54256936  0.52557806    -0.79800
O1197       O  0.54814526  0.55341470  0.57336047    -0.79800
O1198       O  0.97226638  0.89359683  0.53715922    -0.79900
C1199       C  0.94068896  0.91611131  0.55880670     1.09900
C1200       C  0.58790730  0.56181734  0.56304538     1.09700
C1201       C  0.57996021  0.94176086  0.56220533     1.09900
C1202       C  0.92153058  0.55733866  0.56460265     1.09800
O1203       O  0.94650253  0.53407534  0.93131265    -0.79800
O1204       O  0.55497692  0.96315452  0.92939426    -0.79900
O1205       O  0.95933338  0.93444911  0.95183501    -0.79800
O1206       O  0.54926588  0.60225056  0.98130389    -0.79800
O1207       O  0.56095239  0.54863945  0.92912816    -0.79900
O1208       O  0.89222116  0.96945694  0.96393199    -0.79800
O1209       O  0.95633748  0.59308364  0.97624492    -0.79800
O1210       O  0.54660362  0.90879231  0.97717707    -0.79900
Co1211     Co  0.94499815  0.99562944  0.48890302     1.51500
Co1212     Co  0.57636524  0.50437655  0.97701974     1.51500
Co1213     Co  0.99780949  0.94585845  0.51282159     1.51600
Co1214     Co  0.00362878  0.57171480  0.02518360     1.51500
O1215       O  0.01105536  0.00964720  0.49991395    -1.41800
C1216       C  0.94042712  0.57556706  0.93819614     1.09800
C1217       C  0.56345029  0.92352758  0.93896589     1.09900
C1218       C  0.91618018  0.93894183  0.94275898     1.09800
C1219       C  0.56468496  0.58839904  0.94078602     1.09800
O1220       O  0.86213117  0.78437888  0.78681845    -0.79800
O1221       O  0.69316982  0.70587828  0.82060225    -0.79800
O1222       O  0.70795810  0.84562984  0.77247263    -0.79900
O1223       O  0.79773461  0.66100094  0.77388418    -0.79800
O1224       O  0.69927605  0.79136488  0.82029823    -0.79900
O1225       O  0.80741881  0.71990372  0.81899549    -0.79800
O1226       O  0.70480971  0.65218076  0.76850739    -0.79800
O1227       O  0.79507706  0.81973295  0.79830303    -0.79900
C1228       C  0.83816209  0.81508108  0.80768054     1.09900
C1229       C  0.68932767  0.66613119  0.80897732     1.09700
C1230       C  0.69085408  0.83096951  0.81059563     1.09900
C1231       C  0.81350231  0.67842209  0.81204531     1.09800
O1232       O  0.84870827  0.71063235  0.72652936    -0.79800
O1233       O  0.65658156  0.79667847  0.72424319    -0.79900
O1234       O  0.78273934  0.85989881  0.71246022    -0.79800
O1235       O  0.70690162  0.70031204  0.67661506    -0.79800
O1236       O  0.65008692  0.70577760  0.72637518    -0.79900
O1237       O  0.82029837  0.79531561  0.70090933    -0.79800
O1238       O  0.79292535  0.70611485  0.67945249    -0.79800
O1239       O  0.71768349  0.80482892  0.67992912    -0.79900
Co1240     Co  0.80930388  0.75799899  0.76228904     1.51500
Co1241     Co  0.67800820  0.75012774  0.77264148     1.51700
Co1242     Co  0.75681889  0.80795697  0.73698491     1.51600
Co1243     Co  0.75069203  0.68257368  0.72478745     1.51500
O1244       O  0.74330978  0.74431933  0.75038905    -1.41800
C1245       C  0.83329681  0.69543153  0.68765459     1.09800
C1246       C  0.67515198  0.81154438  0.68653349     1.09900
C1247       C  0.81475951  0.83718496  0.69176602     1.09800
C1248       C  0.66714782  0.69176288  0.68672143     1.09800
C1249       C  0.60929322  0.59508687  0.59372546    -0.05000
C1250       C  0.65243834  0.58632881  0.61390396    -0.02100
C1251       C  0.67085267  0.61777627  0.64506231     0.02800
C1252       C  0.64596356  0.65830598  0.65616572    -0.05000
C1253       C  0.60271922  0.66690725  0.63625520    -0.02100
C1254       C  0.58444887  0.63563301  0.60485311     0.02800
C1255       C  0.67728209  0.54455947  0.60353017     0.37500
C1256       C  0.57749445  0.70829809  0.64742836     0.37500
C1257       C  0.54054414  0.64628857  0.58284277     0.35900
C1258       C  0.71494218  0.60738731  0.66680570     0.35900
N1259       N  0.50556273  0.65532694  0.56558204    -0.38900
N1260       N  0.75010243  0.59865486  0.68382423    -0.38900
N1261       N  0.55743786  0.74128856  0.65649254    -0.38400
N1262       N  0.69707194  0.51123446  0.59532620    -0.38400
C1263       C  0.66065437  0.63996867  0.84131036    -0.05000
C1264       C  0.61840322  0.62476370  0.82534153    -0.02100
C1265       C  0.58485758  0.61286735  0.85864821     0.02800
C1266       C  0.59323401  0.61467937  0.90844774    -0.05000
C1267       C  0.63542036  0.63001306  0.92441909    -0.02100
C1268       C  0.66897980  0.64187095  0.89112322     0.02800
C1269       C  0.60827389  0.62141352  0.77481900     0.37500
C1270       C  0.64536550  0.63376166  0.97495032     0.37500
C1271       C  0.71283823  0.65548824  0.90841482     0.35900
C1272       C  0.54087375  0.59952519  0.84142257     0.35900
N1273       N  0.74764054  0.66594614  0.92294533    -0.38900
N1274       N  0.50592955  0.58935258  0.82699353    -0.38900
N1275       N  0.65572662  0.63849684  0.01452575    -0.38400
N1276       N  0.59772632  0.61708263  0.73524298    -0.38400
C1277       C  0.64855850  0.84252072  0.65362469    -0.05000
C1278       C  0.61266559  0.87137733  0.67161552    -0.02100
C1279       C  0.59331016  0.90588533  0.64304705     0.02800
C1280       C  0.60668763  0.91052089  0.59466646    -0.05000
C1281       C  0.64201982  0.88119533  0.57633763    -0.02100
C1282       C  0.66239879  0.84748967  0.60537384     0.02800
C1283       C  0.59473870  0.86623114  0.71961279     0.37500
C1284       C  0.65800004  0.88484970  0.52738769     0.37500
C1285       C  0.69636531  0.81652610  0.58434141     0.35900
C1286       C  0.56124686  0.93829021  0.66480416     0.35900
N1287       N  0.72315866  0.79188101  0.56709966    -0.38900
N1288       N  0.53628652  0.96431696  0.68268555    -0.38900
N1289       N  0.67202911  0.88716104  0.48876147    -0.38400
N1290       N  0.57901103  0.86250555  0.75733335    -0.38400
C1291       C  0.85694016  0.66094400  0.65573046    -0.05000
C1292       C  0.83510530  0.64563330  0.61315391    -0.02100
C1293       C  0.85447698  0.61005650  0.58552093     0.02800
C1294       C  0.89721749  0.59020245  0.59791150    -0.05000
C1295       C  0.91904059  0.60538657  0.64055896    -0.02100
C1296       C  0.89876255  0.63977257  0.66929868     0.02800
C1297       C  0.79218070  0.66592000  0.59631975     0.37500
C1298       C  0.96294946  0.58633859  0.65616440     0.37500
C1299       C  0.92108081  0.65230865  0.71354196     0.35900
C1300       C  0.82996460  0.59450781  0.54386563     0.35900
N1301       N  0.93905727  0.66163607  0.74890340    -0.38900
N1302       N  0.81001703  0.58241826  0.51081920    -0.38900
N1303       N  0.99790923  0.57188112  0.66921231    -0.38400
N1304       N  0.75808270  0.68148254  0.58220947    -0.38400
C1305       C  0.89555536  0.90844636  0.90734469    -0.05000
C1306       C  0.91992252  0.89443068  0.86552427    -0.02100
C1307       C  0.90159737  0.86335018  0.83360365     0.02800
C1308       C  0.85871691  0.84565033  0.84305244    -0.05000
C1309       C  0.83429495  0.85974106  0.88480470    -0.02100
C1310       C  0.85266666  0.89074514  0.91678630     0.02800
C1311       C  0.96336211  0.91294068  0.85395111     0.37500
C1312       C  0.79073612  0.84139605  0.89621958     0.37500
C1313       C  0.82809443  0.90271370  0.96063588     0.35900
C1314       C  0.92620809  0.85129085  0.78980087     0.35900
N1315       N  0.80782089  0.91166552  0.49508538    -0.38900
N1316       N  0.94584421  0.84188169  0.75484926    -0.38900
N1317       N  0.75611804  0.82696257  0.90609596    -0.38400
N1318       N  0.99786781  0.92751759  0.84390752    -0.38400
C1319       C  0.90964968  0.60278520  0.90480299    -0.05000
C1320       C  0.89052936  0.64511444  0.91932352    -0.02100
C1321       C  0.85819805  0.66861393  0.89031930     0.02800
C1322       C  0.84417683  0.65113595  0.84547585    -0.05000
C1323       C  0.86327272  0.60879221  0.83096450    -0.02100
C1324       C  0.89560665  0.58529104  0.85997345     0.02800
C1325       C  0.90300947  0.66514054  0.96471881     0.37500
C1326       C  0.85079774  0.58876976  0.78556183     0.37500
C1327       C  0.91501226  0.54316091  0.84186199     0.35900
C1328       C  0.83880204  0.71075344  0.90842397     0.35900
N1329       N  0.93013131  0.50999539  0.82627648    -0.38900
N1330       N  0.82365471  0.74392519  0.92397200    -0.38900
N1331       N  0.84123777  0.57236163  0.74945642    -0.38400
N1332       N  0.91259005  0.68155513  0.00081357    -0.38400
C1333       C  0.59694978  0.89856770  0.90814266    -0.05000
C1334       C  0.58891183  0.85527981  0.89246718    -0.02100
C1335       C  0.61854268  0.83413647  0.85876072     0.02800
C1336       C  0.65716947  0.85600041  0.84115150    -0.05000
C1337       C  0.66508790  0.89935965  0.85667615    -0.02100
C1338       C  0.63554584  0.92044262  0.89049824     0.02800
C1339       C  0.54930248  0.83297811  0.90973223     0.37500
C1340       C  0.70447791  0.92182112  0.83912076     0.37500
C1341       C  0.64663836  0.96388795  0.90890011     0.35900
C1342       C  0.60755424  0.79060840  0.84051062     0.35900
N1343       N  0.65606435  0.99833870  0.92355193    -0.38900
N1344       N  0.59820385  0.75608074  0.82601314    -0.38900
N1345       N  0.73575946  0.93980080  0.82506465    -0.38400
N1346       N  0.51780966  0.81516120  0.92351563    -0.38400
C1347       C  0.91000039  0.89504269  0.59378944    -0.05000
C1348       C  0.89025302  0.85447427  0.58212178    -0.02100
C1349       C  0.85885327  0.83584827  0.61373684     0.02800
C1350       C  0.84594291  0.85793463  0.65704923    -0.05000
C1351       C  0.86561308  0.89855834  0.66867690    -0.02100
C1352       C  0.89754363  0.91684023  0.63739844     0.02800
C1353       C  0.90050659  0.83266993  0.53643222     0.37500
C1354       C  0.85467334  0.92077944  0.71398698     0.37500
C1355       C  0.91866598  0.95741702  0.65136851     0.35900
C1356       C  0.83907333  0.79437234  0.60058148     0.35900
N1357       N  0.93516038  0.98973928  0.66348498    -0.38900
N1358       N  0.82388845  0.76118102  0.58922132    -0.38900
N1359       N  0.84607748  0.93845788  0.75010958    -0.38400
N1360       N  0.91037235  0.81476091  0.00099518    -0.38400
loop_ 
_geom_bond_atom_site_label_1 
_geom_bond_atom_site_label_2 
_geom_bond_distance 
_geom_bond_site_symmetry_2 
_ccdc_geom_bond_type 
O1            C9   1.293       .  A
O1          Co21   2.092   1_554  S
O2           C10   1.274       .  A
O2         Co192   2.051   1_554  S
O3           C11   1.268       .  A
O3         Co703   1.969   1_455  S
O4           C12   1.236       .  A
O4         Co194   1.932       .  S
O5           C11   1.278       .  A
O5         Co532   2.037   1_554  S
O6           C12   1.266       .  A
O6         Co361   2.045   1_544  S
O7           C10   1.239       .  A
O7         Co874   1.925       .  S
O8            C9   1.271       .  A
O8          Co23   1.904       .  S
C9          C157   1.493       .  S
C10          C59   1.476       .  S
C11          C90   1.508       .  S
C12         C104   1.506       .  S
O13          C26   1.268       .  A
O13        Co531   1.966   1_545  S
O14          C27   1.239       .  A
O14        Co362   1.934       .  S
O15          C28   1.292       .  A
O15        Co193   2.082       .  S
O16          C29   1.276       .  A
O16        Co704   2.067       .  S
O17          C29   1.248       .  A
O17         Co22   1.936       .  S
O18          C28   1.272       .  A
O18        Co191   1.904       .  S
O19          C26   1.282       .  A
O19         Co24   2.044       .  S
O20          C27   1.267       .  A
O20        Co873   2.034   1_455  S
Co21        O346   2.045   1_556  S
Co21        O523   1.967       .  S
Co21        O188   1.901       .  S
Co21         O25   2.027       .  S
Co22        O172   2.051       .  S
Co22        O515   2.040   1_545  S
Co22        O354   1.934   1_545  S
Co22       O1215   2.013       .  S
Co23        O683   1.969       .  S
Co23        O185   2.085   1_554  S
Co23        O870   2.036   1_554  S
Co23         O25   2.015   1_554  S
Co24        O174   1.934       .  S
Co24        O857   1.927       .  S
Co24        O696   2.067       .  S
Co24        O535   1.990       .  S
O25       Co1212   2.013       .  S
O25        Co534   1.989   1_556  S
C26         C129   1.522       .  S
C27         C143   1.477       .  S
C28         C115   1.492       .  S
C29          C76   1.490       .  S
O30          C38   1.272       .  A
O30         Co50   1.905       .  S
O31          C39   1.247       .  A
O31         Co51   1.934       .  S
O32          C40   1.267       .  A
O32         Co52   2.034       .  S
O33          C41   1.282       .  A
O33         Co53   2.044       .  S
O34          C40   1.239       .  A
O34         Co51   1.934       .  S
O35          C41   1.268       .  A
O35         Co50   1.966       .  S
O36          C39   1.276       .  A
O36         Co53   2.068       .  S
O37          C38   1.293       .  A
O37         Co52   2.083       .  S
C38         C118   1.493       .  S
C39          C73   1.490       .  S
C40         C146   1.477       .  S
C41         C132   1.522       .  S
O42          C55   1.267       .  A
O42         Co50   2.044       .  S
O43          C56   1.278       .  A
O43         Co51   2.038       .  S
O44          C57   1.271       .  A
O44         Co52   1.905       .  S
O45          C58   1.239       .  A
O45         Co53   1.927       .  S
O46          C58   1.274       .  A
O46         Co51   2.052       .  S
O47          C57   1.293       .  A
O47         Co50   2.089       .  S
O48          C55   1.236       .  A
O48         Co53   1.934       .  S
O49          C56   1.268       .  A
O49         Co52   1.968       .  S
Co50         O54   2.028       .  S
Co51         O54   2.014       .  S
Co52         O54   2.016       .  S
Co53         O54   1.990       .  S
C55         C101   1.506       .  S
C56          C87   1.508       .  S
C57         C160   1.492       .  S
C58          C62   1.476       .  S
C59          C60   1.401       .  A
C59          C64   1.425       .  A
C60          C61   1.407       .  A
C60          C65   1.452       .  S
C61          C62   1.425       .  A
C61          C68   1.453       .  S
C62          C63   1.402       .  A
C63          C64   1.408       .  A
C63          C66   1.452       .  S
C64          C67   1.453       .  S
C65          N72   1.157       .  T
C66          N71   1.157       .  T
C67          N69   1.157       .  T
C68          N70   1.157       .  T
C73          C74   1.413       .  A
C73          C78   1.414       .  A
C74          C75   1.413       .  A
C74          C79   1.445       .  S
C75          C76   1.414       .  A
C75          C82   1.452       .  S
C76          C77   1.413       .  A
C77          C78   1.413       .  A
C77          C80   1.445       .  S
C78          C81   1.452       .  S
C79          N86   1.156       .  T
C80          N85   1.156       .  T
C81          N83   1.156       .  T
C82          N84   1.156       .  T
C87          C88   1.422       .  A
C87          C92   1.415       .  A
C88          C89   1.417       .  A
C88          C93   1.450       .  S
C89          C90   1.416       .  A
C89          C96   1.453       .  S
C90          C91   1.422       .  A
C91          C92   1.416       .  A
C91          C94   1.450       .  S
C92          C95   1.452       .  S
C93         N100   1.157       .  T
C94          N99   1.157   1_554  T
C95          N97   1.157       .  T
C96          N98   1.157       .  T
C101        C102   1.434       .  A
C101        C106   1.410       .  A
C102        C103   1.413       .  A
C102        C107   1.456       .  S
C103        C104   1.411       .  A
C103        C110   1.454       .  S
C104        C105   1.434       .  A
C105        C106   1.412       .  A
C105        C108   1.456       .  S
C106        C109   1.454       .  S
C107        N114   1.157       .  T
C108        N113   1.157       .  T
C109        N111   1.158       .  T
C110        N112   1.158       .  T
C115        C116   1.419       .  A
C115        C120   1.414       .  A
C116        C117   1.412       .  A
C116        C121   1.452       .  S
C117        C118   1.414       .  A
C117        C124   1.453       .  S
C118        C119   1.418       .  A
C119        C120   1.412       .  A
C119        C122   1.452       .  S
C120        C123   1.453       .  S
C121        N128   1.157       .  T
C122        N127   1.157       .  T
C123        N295   1.158       .  T
C124        N126   1.158       .  T
N125        C293   1.158       .  T
C129        C130   1.424       .  A
C129        C134   1.423       .  A
C130        C131   1.419       .  A
C130        C135   1.453       .  S
C131        C132   1.423       .  A
C131        C138   1.452       .  S
C132        C133   1.424       .  A
C133        C134   1.419       .  A
C133        C136   1.453       .  S
C134        C137   1.453       .  S
C135        N142   1.159       .  T
C136        N141   1.159       .  T
C137        N139   1.156       .  T
C138        N140   1.156       .  T
C143        C144   1.402       .  A
C143        C148   1.426       .  A
C144        C145   1.406       .  A
C144        C149   1.453       .  S
C145        C146   1.426       .  A
C145        C152   1.453       .  S
C146        C147   1.402       .  A
C147        C148   1.406       .  A
C147        C150   1.453       .  S
C148        C151   1.453       .  S
C149        N156   1.157       .  T
C150        N155   1.157       .  T
C151        N153   1.158       .  T
C152        N154   1.158       .  T
C157        C158   1.413       .  A
C157        C162   1.416       .  A
C158        C159   1.413       .  A
C158        C163   1.453       .  S
C159        C160   1.416       .  A
C159        C166   1.447       .  S
C160        C161   1.413       .  A
C161        C162   1.413       .  A
C161        C164   1.453       .  S
C162        C165   1.447       .  S
C163        N340   1.157       .  T
C164        N169   1.157       .  T
C165        N167   1.156       .  T
C166        N168   1.156       .  T
N170        C333   1.157       .  T
O171        C179   1.293       .  A
O171       Co191   2.090       .  S
O172        C180   1.274       .  A
O173        C181   1.268       .  A
O173       Co873   1.968   1_455  S
O174        C182   1.236       .  A
O175        C181   1.279       .  A
O175       Co362   2.040       .  S
O176        C182   1.267       .  A
O176       Co531   2.044   1_545  S
O177        C180   1.239       .  A
O177       Co704   1.927       .  S
O178        C179   1.271       .  A
O178       Co193   1.906       .  S
C179        C327   1.493       .  S
C180        C229   1.475       .  S
C181        C260   1.508       .  S
C182        C274   1.506       .  S
O183        C196   1.268       .  A
O183       Co361   1.967   1_545  S
O184        C197   1.241       .  A
O184       Co532   1.936       .  S
O185        C198   1.293       .  A
O186        C199   1.276       .  A
O186       Co874   2.066   1_556  S
O187        C199   1.249       .  A
O187       Co192   1.937       .  S
O188        C198   1.272       .  A
O189        C196   1.280       .  A
O189       Co194   2.037   1_556  S
O190        C197   1.267       .  A
O190       Co703   2.036   1_456  S
Co191       O516   2.044       .  S
Co191       O353   1.966       .  S
Co191       O195   2.026       .  S
Co192       O345   2.037   1_546  S
Co192       O524   1.936   1_545  S
Co192      O1045   2.013       .  S
Co193       O853   1.968       .  S
Co193       O700   2.034       .  S
Co193       O195   2.015       .  S
Co194       O687   1.925       .  S
Co194       O866   2.066   1_554  S
Co194       O365   1.989   1_554  S
O195      Co1042   2.013       .  S
O195       Co364   1.990       .  S
C196        C299   1.519       .  S
C197        C313   1.479       .  S
C198        C285   1.492       .  S
C199        C246   1.488       .  S
O200        C208   1.272       .  A
O200       Co220   1.901       .  S
O201        C209   1.249       .  A
O201       Co221   1.937       .  S
O202        C210   1.267       .  A
O202       Co222   2.036       .  S
O203        C211   1.280       .  A
O203       Co223   2.037       .  S
O204        C210   1.241       .  A
O204       Co221   1.936       .  S
O205        C211   1.268       .  A
O205       Co220   1.966       .  S
O206        C209   1.276       .  A
O206       Co223   2.066       .  S
O207        C208   1.293       .  A
O207       Co222   2.085       .  S
C208        C288   1.491       .  S
C209        C243   1.488       .  S
C210        C316   1.479       .  S
C211        C302   1.519       .  S
O212        C225   1.266       .  A
O212       Co220   2.046       .  S
O213        C226   1.278       .  A
O213       Co221   2.037       .  S
O214        C227   1.271       .  A
O214       Co222   1.904       .  S
O215        C228   1.239       .  A
O215       Co223   1.924       .  S
O216        C228   1.274       .  A
O216       Co221   2.049       .  S
O217        C227   1.293       .  A
O217       Co220   2.091       .  S
O218        C225   1.236       .  A
O218       Co223   1.932       .  S
O219        C226   1.268       .  A
O219       Co222   1.970       .  S
Co220       O224   2.026       .  S
Co221       O224   2.012       .  S
Co222       O224   2.015       .  S
Co223       O224   1.989       .  S
C225        C271   1.506       .  S
C226        C257   1.509       .  S
C227        C330   1.493       .  S
C228        C232   1.475       .  S
C229        C230   1.402       .  A
C229        C234   1.425       .  A
C230        C231   1.407       .  A
C230        C235   1.452       .  S
C231        C232   1.425       .  A
C231        C238   1.453       .  S
C232        C233   1.401       .  A
C233        C234   1.406       .  A
C233        C236   1.452       .  S
C234        C237   1.453       .  S
C235        N242   1.158       .  T
C236        N241   1.158       .  T
C237        N239   1.157       .  T
C238        N240   1.157       .  T
C243        C244   1.413       .  A
C243        C248   1.413       .  A
C244        C245   1.413       .  A
C244        C249   1.445       .  S
C245        C246   1.413       .  A
C245        C252   1.451       .  S
C246        C247   1.413       .  A
C247        C248   1.413       .  A
C247        C250   1.445       .  S
C248        C251   1.451       .  S
C249        N256   1.156       .  T
C250        N255   1.156   1_556  T
C251        N253   1.156       .  T
C252        N254   1.156       .  T
C257        C258   1.422       .  A
C257        C262   1.417       .  A
C258        C259   1.416       .  A
C258        C263   1.450       .  S
C259        C260   1.415       .  A
C259        C266   1.452       .  S
C260        C261   1.422       .  A
C261        C262   1.417       .  A
C261        C264   1.450       .  S
C262        C265   1.452       .  S
C263        N270   1.157       .  T
C264        N269   1.157       .  T
C265        N267   1.157       .  T
C266        N268   1.157       .  T
C271        C272   1.434       .  A
C271        C276   1.411       .  A
C272        C273   1.412       .  A
C272        C277   1.456       .  S
C273        C274   1.410       .  A
C273        C280   1.454       .  S
C274        C275   1.434       .  A
C275        C276   1.413       .  A
C275        C278   1.456       .  S
C276        C279   1.454       .  S
C277        N284   1.157       .  T
C278        N283   1.157       .  T
C279        N281   1.158       .  T
C280        N282   1.158       .  T
C285        C286   1.418       .  A
C285        C290   1.415       .  A
C286        C287   1.412       .  A
C286        C291   1.452       .  S
C287        C288   1.414       .  A
C287        C294   1.453       .  S
C288        C289   1.417       .  A
C289        C290   1.412       .  A
C289        C292   1.452       .  S
C290        C293   1.453       .  S
C291        N298   1.157       .  T
C292        N297   1.157       .  T
C294        N296   1.158       .  T
C299        C300   1.425       .  A
C299        C304   1.422       .  A
C300        C301   1.418       .  A
C300        C305   1.453       .  S
C301        C302   1.422       .  A
C301        C308   1.453       .  S
C302        C303   1.425       .  A
C303        C304   1.418       .  A
C303        C306   1.453       .  S
C304        C307   1.453       .  S
C305        N312   1.159   1_556  T
C306        N311   1.159       .  T
C307        N309   1.156       .  T
C308        N310   1.156       .  T
C313        C314   1.403       .  A
C313        C318   1.426       .  A
C314        C315   1.407       .  A
C314        C319   1.453       .  S
C315        C316   1.426       .  A
C315        C322   1.453       .  S
C316        C317   1.403       .  A
C317        C318   1.407       .  A
C317        C320   1.453       .  S
C318        C321   1.453       .  S
C319        N326   1.157       .  T
C320        N325   1.157       .  T
C321        N323   1.158       .  T
C322        N324   1.158       .  T
C327        C328   1.413       .  A
C327        C332   1.416       .  A
C328        C329   1.413       .  A
C328        C333   1.453       .  S
C329        C330   1.416       .  A
C329        C336   1.447       .  S
C330        C331   1.413       .  A
C331        C332   1.413       .  A
C331        C334   1.453       .  S
C332        C335   1.447       .  S
C334        N339   1.157       .  T
C335        N337   1.156       .  T
C336        N338   1.156       .  T
O341        C349   1.293       .  A
O341       Co361   2.092   1_554  S
O342        C350   1.274       .  A
O342       Co532   2.051   1_554  S
O343        C351   1.268       .  A
O343      Co1043   1.969   1_455  S
O344        C352   1.236       .  A
O344       Co534   1.932       .  S
O345        C351   1.278       .  A
O346        C352   1.266       .  A
O347        C350   1.239       .  A
O347      Co1214   1.925       .  S
O348        C349   1.271       .  A
O348       Co363   1.904       .  S
C349        C497   1.493       .  S
C350        C399   1.476       .  S
C351        C430   1.508       .  S
C352        C444   1.506       .  S
O353        C366   1.268       .  A
O354        C367   1.239       .  A
O355        C368   1.292       .  A
O355       Co533   2.082       .  S
O356        C369   1.276       .  A
O356      Co1044   2.067       .  S
O357        C369   1.248       .  A
O357       Co362   1.936       .  S
O358        C368   1.272       .  A
O358       Co531   1.904       .  S
O359        C366   1.282       .  A
O359       Co364   2.044       .  S
O360        C367   1.267       .  A
O360      Co1213   2.034   1_455  S
Co361       O528   1.901       .  S
Co361       O365   2.027   1_565  S
Co362       O512   2.051       .  S
Co362       O875   2.013       .  S
Co363      O1023   1.969       .  S
Co363       O525   2.085   1_554  S
Co363      O1210   2.036   1_554  S
Co363       O365   2.015   1_564  S
Co364       O514   1.934       .  S
Co364      O1197   1.927       .  S
Co364      O1036   2.067       .  S
O365       Co872   2.013       .  S
C366        C469   1.522       .  S
C367        C483   1.477       .  S
C368        C455   1.492       .  S
C369        C416   1.490       .  S
O370        C378   1.272       .  A
O370       Co390   1.905       .  S
O371        C379   1.247       .  A
O371       Co391   1.934       .  S
O372        C380   1.267       .  A
O372       Co392   2.034       .  S
O373        C381   1.282       .  A
O373       Co393   2.044       .  S
O374        C380   1.239       .  A
O374       Co391   1.934       .  S
O375        C381   1.268       .  A
O375       Co390   1.966       .  S
O376        C379   1.276       .  A
O376       Co393   2.068       .  S
O377        C378   1.293       .  A
O377       Co392   2.083       .  S
C378        C458   1.493       .  S
C379        C413   1.490       .  S
C380        C486   1.477       .  S
C381        C472   1.522       .  S
O382        C395   1.267       .  A
O382       Co390   2.044       .  S
O383        C396   1.278       .  A
O383       Co391   2.038       .  S
O384        C397   1.271       .  A
O384       Co392   1.905       .  S
O385        C398   1.239       .  A
O385       Co393   1.927       .  S
O386        C398   1.274       .  A
O386       Co391   2.052       .  S
O387        C397   1.293       .  A
O387       Co390   2.089       .  S
O388        C395   1.236       .  A
O388       Co393   1.934       .  S
O389        C396   1.268       .  A
O389       Co392   1.968       .  S
Co390       O394   2.028       .  S
Co391       O394   2.014       .  S
Co392       O394   2.016       .  S
Co393       O394   1.990       .  S
C395        C441   1.506       .  S
C396        C427   1.508       .  S
C397        C500   1.493       .  S
C398        C402   1.476       .  S
C399        C400   1.401       .  A
C399        C404   1.425       .  A
C400        C401   1.407       .  A
C400        C405   1.452       .  S
C401        C402   1.425       .  A
C401        C408   1.453       .  S
C402        C403   1.402       .  A
C403        C404   1.408       .  A
C403        C406   1.452       .  S
C404        C407   1.453       .  S
C405        N412   1.157       .  T
C406        N411   1.158       .  T
C407        N409   1.157       .  T
C408        N410   1.157       .  T
C413        C414   1.413       .  A
C413        C418   1.414       .  A
C414        C415   1.413       .  A
C414        C419   1.445       .  S
C415        C416   1.414       .  A
C415        C422   1.452       .  S
C416        C417   1.413       .  A
C417        C418   1.413       .  A
C417        C420   1.445       .  S
C418        C421   1.452       .  S
C419        N426   1.156       .  T
C420        N425   1.156       .  T
C421        N423   1.156       .  T
C422        N424   1.156       .  T
C427        C428   1.422       .  A
C427        C432   1.415       .  A
C428        C429   1.417       .  A
C428        C433   1.450       .  S
C429        C430   1.416       .  A
C429        C436   1.453       .  S
C430        C431   1.422       .  A
C431        C432   1.416       .  A
C431        C434   1.450       .  S
C432        C435   1.452       .  S
C433        N440   1.157       .  T
C434        N439   1.157   1_554  T
C435        N437   1.157       .  T
C436        N438   1.157       .  T
C441        C442   1.434       .  A
C441        C446   1.410       .  A
C442        C443   1.413       .  A
C442        C447   1.456       .  S
C443        C444   1.411       .  A
C443        C450   1.454       .  S
C444        C445   1.434       .  A
C445        C446   1.412       .  A
C445        C448   1.456       .  S
C446        C449   1.454       .  S
C447        N454   1.157       .  T
C448        N453   1.157       .  T
C449        N451   1.158       .  T
C450        N452   1.158       .  T
C455        C456   1.419       .  A
C455        C460   1.414       .  A
C456        C457   1.412       .  A
C456        C461   1.452       .  S
C457        C458   1.414       .  A
C457        C464   1.453       .  S
C458        C459   1.418       .  A
C459        C460   1.412       .  A
C459        C462   1.452       .  S
C460        C463   1.453       .  S
C461        N468   1.157       .  T
C462        N467   1.157       .  T
C463        N635   1.158       .  T
C464        N466   1.158       .  T
N465        C633   1.158       .  T
C469        C470   1.424       .  A
C469        C474   1.423       .  A
C470        C471   1.419       .  A
C470        C475   1.453       .  S
C471        C472   1.423       .  A
C471        C478   1.452       .  S
C472        C473   1.424       .  A
C473        C474   1.419       .  A
C473        C476   1.453       .  S
C474        C477   1.453       .  S
C475        N482   1.159       .  T
C476        N481   1.159       .  T
C477        N479   1.156       .  T
C478        N480   1.156       .  T
C483        C484   1.402       .  A
C483        C488   1.426       .  A
C484        C485   1.406       .  A
C484        C489   1.453       .  S
C485        C486   1.426       .  A
C485        C492   1.453       .  S
C486        C487   1.402       .  A
C487        C488   1.406       .  A
C487        C490   1.453       .  S
C488        C491   1.453       .  S
C489        N496   1.157       .  T
C490        N495   1.157       .  T
C491        N493   1.158   1_565  T
C492        N494   1.158       .  T
C497        C498   1.413       .  A
C497        C502   1.417       .  A
C498        C499   1.413       .  A
C498        C503   1.453       .  S
C499        C500   1.416       .  A
C499        C506   1.447       .  S
C500        C501   1.413       .  A
C501        C502   1.413       .  A
C501        C504   1.453       .  S
C502        C505   1.447       .  S
C503        N680   1.157       .  T
C504        N509   1.157       .  T
C505        N507   1.156       .  T
C506        N508   1.156       .  T
N510        C673   1.157       .  T
O511        C519   1.293       .  A
O511       Co531   2.090       .  S
O512        C520   1.274       .  A
O513        C521   1.268       .  A
O513      Co1213   1.968   1_455  S
O514        C522   1.236       .  A
O515        C521   1.279       .  A
O516        C522   1.267       .  A
O517        C520   1.239       .  A
O517      Co1044   1.927       .  S
O518        C519   1.271       .  A
O518       Co533   1.906       .  S
C519        C667   1.493       .  S
C520        C569   1.475       .  S
C521        C600   1.508       .  S
C522        C614   1.506       .  S
O523        C536   1.268       .  A
O524        C537   1.241       .  A
O525        C538   1.293       .  A
O526        C539   1.276       .  A
O526      Co1214   2.066   1_556  S
O527        C539   1.249       .  A
O527       Co532   1.937       .  S
O528        C538   1.272       .  A
O529        C536   1.280       .  A
O529       Co534   2.037   1_556  S
O530        C537   1.267       .  A
O530      Co1043   2.036   1_456  S
Co531       O535   2.026   1_565  S
Co532       O705   2.013       .  S
Co533      O1193   1.968       .  S
Co533      O1040   2.034       .  S
Co533       O535   2.015   1_565  S
Co534      O1027   1.925       .  S
Co534      O1206   2.066   1_554  S
O535       Co702   2.013       .  S
C536        C639   1.519       .  S
C537        C653   1.479       .  S
C538        C625   1.492       .  S
C539        C586   1.488       .  S
O540        C548   1.272       .  A
O540       Co560   1.901       .  S
O541        C549   1.249       .  A
O541       Co561   1.937       .  S
O542        C550   1.267       .  A
O542       Co562   2.036       .  S
O543        C551   1.280       .  A
O543       Co563   2.037       .  S
O544        C550   1.241       .  A
O544       Co561   1.936       .  S
O545        C551   1.268       .  A
O545       Co560   1.966       .  S
O546        C549   1.276       .  A
O546       Co563   2.066       .  S
O547        C548   1.293       .  A
O547       Co562   2.085       .  S
C548        C628   1.491       .  S
C549        C583   1.488       .  S
C550        C656   1.479       .  S
C551        C642   1.519       .  S
O552        C565   1.266       .  A
O552       Co560   2.046       .  S
O553        C566   1.278       .  A
O553       Co561   2.037       .  S
O554        C567   1.271       .  A
O554       Co562   1.904       .  S
O555        C568   1.239       .  A
O555       Co563   1.924       .  S
O556        C568   1.274       .  A
O556       Co561   2.049       .  S
O557        C567   1.293       .  A
O557       Co560   2.091       .  S
O558        C565   1.236       .  A
O558       Co563   1.932       .  S
O559        C566   1.268       .  A
O559       Co562   1.970       .  S
Co560       O564   2.026       .  S
Co561       O564   2.012       .  S
Co562       O564   2.015       .  S
Co563       O564   1.989       .  S
C565        C611   1.506       .  S
C566        C597   1.509       .  S
C567        C670   1.492       .  S
C568        C572   1.475       .  S
C569        C570   1.402       .  A
C569        C574   1.425       .  A
C570        C571   1.407       .  A
C570        C575   1.452       .  S
C571        C572   1.425       .  A
C571        C578   1.453       .  S
C572        C573   1.401       .  A
C573        C574   1.406       .  A
C573        C576   1.452       .  S
C574        C577   1.453       .  S
C575        N582   1.158       .  T
C576        N581   1.157       .  T
C577        N579   1.157       .  T
C578        N580   1.157       .  T
C583        C584   1.413       .  A
C583        C588   1.413       .  A
C584        C585   1.413       .  A
C584        C589   1.445       .  S
C585        C586   1.413       .  A
C585        C592   1.451       .  S
C586        C587   1.413       .  A
C587        C588   1.412       .  A
C587        C590   1.445       .  S
C588        C591   1.451       .  S
C589        N596   1.156       .  T
C590        N595   1.156   1_556  T
C591        N593   1.156       .  T
C592        N594   1.156       .  T
C597        C598   1.422       .  A
C597        C602   1.417       .  A
C598        C599   1.416       .  A
C598        C603   1.450       .  S
C599        C600   1.415       .  A
C599        C606   1.452       .  S
C600        C601   1.422       .  A
C601        C602   1.417       .  A
C601        C604   1.450       .  S
C602        C605   1.452       .  S
C603        N610   1.157       .  T
C604        N609   1.157       .  T
C605        N607   1.157       .  T
C606        N608   1.157       .  T
C611        C612   1.434       .  A
C611        C616   1.411       .  A
C612        C613   1.412       .  A
C612        C617   1.456       .  S
C613        C614   1.410       .  A
C613        C620   1.454       .  S
C614        C615   1.434       .  A
C615        C616   1.413       .  A
C615        C618   1.456       .  S
C616        C619   1.454       .  S
C617        N624   1.157       .  T
C618        N623   1.157       .  T
C619        N621   1.159       .  T
C620        N622   1.158       .  T
C625        C626   1.418       .  A
C625        C630   1.415       .  A
C626        C627   1.412       .  A
C626        C631   1.452       .  S
C627        C628   1.414       .  A
C627        C634   1.453       .  S
C628        C629   1.418       .  A
C629        C630   1.412       .  A
C629        C632   1.452       .  S
C630        C633   1.453       .  S
C631        N638   1.157       .  T
C632        N637   1.157       .  T
C634        N636   1.158       .  T
C639        C640   1.425       .  A
C639        C644   1.422       .  A
C640        C641   1.418       .  A
C640        C645   1.453       .  S
C641        C642   1.422       .  A
C641        C648   1.453       .  S
C642        C643   1.425       .  A
C643        C644   1.418       .  A
C643        C646   1.453       .  S
C644        C647   1.453       .  S
C645        N652   1.159   1_556  T
C646        N651   1.159       .  T
C647        N649   1.156       .  T
C648        N650   1.156       .  T
C653        C654   1.403       .  A
C653        C658   1.426       .  A
C654        C655   1.407       .  A
C654        C659   1.453       .  S
C655        C656   1.426       .  A
C655        C662   1.453       .  S
C656        C657   1.403       .  A
C657        C658   1.407       .  A
C657        C660   1.453       .  S
C658        C661   1.453       .  S
C659        N666   1.157       .  T
C660        N665   1.157       .  T
C661        N663   1.158       .  T
C662        N664   1.158       .  T
C667        C668   1.413       .  A
C667        C672   1.416       .  A
C668        C669   1.413       .  A
C668        C673   1.453       .  S
C669        C670   1.417       .  A
C669        C676   1.447       .  S
C670        C671   1.413       .  A
C671        C672   1.413       .  A
C671        C674   1.453       .  S
C672        C675   1.447       .  S
C674        N679   1.157       .  T
C675        N677   1.156       .  T
C676        N678   1.156       .  T
O681        C689   1.293       .  A
O681       Co701   2.092   1_554  S
O682        C690   1.274       .  A
O682       Co872   2.051   1_554  S
O683        C691   1.268       .  A
O684        C692   1.236       .  A
O684       Co874   1.932   1_655  S
O685        C691   1.278       .  A
O685      Co1212   2.037   1_554  S
O686        C692   1.266       .  A
O686      Co1041   2.045   1_544  S
O687        C690   1.239       .  A
O688        C689   1.271       .  A
O688       Co703   1.904       .  S
C689        C837   1.493       .  S
C690        C739   1.476       .  S
C691        C770   1.508       .  S
C692        C784   1.506       .  S
O693        C706   1.267       .  A
O693      Co1211   1.966   1_545  S
O694        C707   1.239       .  A
O694      Co1042   1.934       .  S
O695        C708   1.292       .  A
O695       Co873   2.082       .  S
O696        C709   1.276       .  A
O697        C709   1.248       .  A
O697       Co702   1.936       .  S
O698        C708   1.272       .  A
O698       Co871   1.904       .  S
O699        C706   1.282       .  A
O699       Co704   2.044   1_655  S
O700        C707   1.267       .  A
Co701      O1026   2.045   1_556  S
Co701      O1203   1.967       .  S
Co701       O868   1.901       .  S
Co701       O705   2.027   1_655  S
Co702       O852   2.051       .  S
Co702      O1195   2.040   1_545  S
Co702      O1034   1.934   1_545  S
Co703       O865   2.085   1_554  S
Co703       O705   2.015   1_654  S
Co704       O854   1.934   1_455  S
Co704      O1215   1.990       .  S
O705      Co1214   1.989   1_556  S
C706        C809   1.522       .  S
C707        C823   1.477       .  S
C708        C795   1.493       .  S
C709        C756   1.490       .  S
O710        C718   1.272       .  A
O710       Co730   1.905       .  S
O711        C719   1.247       .  A
O711       Co731   1.934       .  S
O712        C720   1.267       .  A
O712       Co732   2.034       .  S
O713        C721   1.282       .  A
O713       Co733   2.044       .  S
O714        C720   1.239       .  A
O714       Co731   1.934       .  S
O715        C721   1.268       .  A
O715       Co730   1.966       .  S
O716        C719   1.276       .  A
O716       Co733   2.068       .  S
O717        C718   1.293       .  A
O717       Co732   2.083       .  S
C718        C798   1.493       .  S
C719        C753   1.490       .  S
C720        C826   1.477       .  S
C721        C812   1.522       .  S
O722        C735   1.267       .  A
O722       Co730   2.044       .  S
O723        C736   1.278       .  A
O723       Co731   2.038       .  S
O724        C737   1.271       .  A
O724       Co732   1.905       .  S
O725        C738   1.239       .  A
O725       Co733   1.927       .  S
O726        C738   1.274       .  A
O726       Co731   2.052       .  S
O727        C737   1.293       .  A
O727       Co730   2.089       .  S
O728        C735   1.236       .  A
O728       Co733   1.934       .  S
O729        C736   1.268       .  A
O729       Co732   1.968       .  S
Co730       O734   2.028       .  S
Co731       O734   2.014       .  S
Co732       O734   2.016       .  S
Co733       O734   1.990       .  S
C735        C781   1.506       .  S
C736        C767   1.508       .  S
C737        C840   1.492       .  S
C738        C742   1.476       .  S
C739        C740   1.401       .  A
C739        C744   1.425       .  A
C740        C741   1.406       .  A
C740        C745   1.452       .  S
C741        C742   1.425       .  A
C741        C748   1.453       .  S
C742        C743   1.402       .  A
C743        C744   1.408       .  A
C743        C746   1.452       .  S
C744        C747   1.453       .  S
C745        N752   1.157       .  T
C746        N751   1.158       .  T
C747        N749   1.157       .  T
C748        N750   1.157       .  T
C753        C754   1.413       .  A
C753        C758   1.414       .  A
C754        C755   1.413       .  A
C754        C759   1.445       .  S
C755        C756   1.414       .  A
C755        C762   1.452       .  S
C756        C757   1.413       .  A
C757        C758   1.413       .  A
C757        C760   1.445       .  S
C758        C761   1.452       .  S
C759        N766   1.156       .  T
C760        N765   1.156       .  T
C761        N763   1.156       .  T
C762        N764   1.156       .  T
C767        C768   1.422       .  A
C767        C772   1.415       .  A
C768        C769   1.417       .  A
C768        C773   1.450       .  S
C769        C770   1.416       .  A
C769        C776   1.453       .  S
C770        C771   1.422       .  A
C771        C772   1.416       .  A
C771        C774   1.450       .  S
C772        C775   1.452       .  S
C773        N780   1.157       .  T
C774        N779   1.157   1_554  T
C775        N777   1.157       .  T
C776        N778   1.157       .  T
C781        C782   1.434       .  A
C781        C786   1.410       .  A
C782        C783   1.413       .  A
C782        C787   1.456       .  S
C783        C784   1.411       .  A
C783        C790   1.454       .  S
C784        C785   1.434       .  A
C785        C786   1.412       .  A
C785        C788   1.456       .  S
C786        C789   1.454       .  S
C787        N794   1.157       .  T
C788        N793   1.157       .  T
C789        N791   1.158       .  T
C790        N792   1.158       .  T
C795        C796   1.418       .  A
C795        C800   1.414       .  A
C796        C797   1.412       .  A
C796        C801   1.452       .  S
C797        C798   1.414       .  A
C797        C804   1.453       .  S
C798        C799   1.418       .  A
C799        C800   1.412       .  A
C799        C802   1.452       .  S
C800        C803   1.453       .  S
C801        N808   1.157       .  T
C802        N807   1.157       .  T
C803        N975   1.158       .  T
C804        N806   1.158       .  T
N805        C973   1.158       .  T
C809        C810   1.424       .  A
C809        C814   1.423       .  A
C810        C811   1.419       .  A
C810        C815   1.453       .  S
C811        C812   1.423       .  A
C811        C818   1.452       .  S
C812        C813   1.424       .  A
C813        C814   1.419       .  A
C813        C816   1.453       .  S
C814        C817   1.453       .  S
C815        N822   1.159       .  T
C816        N821   1.159       .  T
C817        N819   1.155       .  T
C818        N820   1.156       .  T
C823        C824   1.402       .  A
C823        C828   1.426       .  A
C824        C825   1.406       .  A
C824        C829   1.453       .  S
C825        C826   1.426       .  A
C825        C832   1.453       .  S
C826        C827   1.402       .  A
C827        C828   1.406       .  A
C827        C830   1.453       .  S
C828        C831   1.453       .  S
C829        N836   1.157       .  T
C830        N835   1.157       .  T
C831        N833   1.158       .  T
C832        N834   1.158       .  T
C837        C838   1.413       .  A
C837        C842   1.417       .  A
C838        C839   1.413       .  A
C838        C843   1.453       .  S
C839        C840   1.416       .  A
C839        C846   1.447       .  S
C840        C841   1.413       .  A
C841        C842   1.413       .  A
C841        C844   1.453       .  S
C842        C845   1.447       .  S
C843       N1020   1.157       .  T
C844        N849   1.157       .  T
C845        N847   1.156       .  T
C846        N848   1.156       .  T
N850       C1013   1.157       .  T
O851        C859   1.293       .  A
O851       Co871   2.090       .  S
O852        C860   1.274       .  A
O853        C861   1.268       .  A
O854        C862   1.236       .  A
O855        C861   1.279       .  A
O855      Co1042   2.040       .  S
O856        C862   1.267       .  A
O856      Co1211   2.044   1_545  S
O857        C860   1.239       .  A
O858        C859   1.271       .  A
O858       Co873   1.906       .  S
C859       C1007   1.493       .  S
C860        C909   1.475       .  S
C861        C940   1.508       .  S
C862        C954   1.506       .  S
O863        C876   1.268       .  A
O863      Co1041   1.967   1_545  S
O864        C877   1.241       .  A
O864      Co1212   1.936       .  S
O865        C878   1.293       .  A
O866        C879   1.276       .  A
O867        C879   1.249       .  A
O867       Co872   1.937       .  S
O868        C878   1.272       .  A
O869        C876   1.280       .  A
O869       Co874   2.037   1_656  S
O870        C877   1.267       .  A
Co871      O1196   2.044       .  S
Co871      O1033   1.966       .  S
Co871       O875   2.026   1_655  S
Co872      O1025   2.037   1_546  S
Co872      O1204   1.936   1_545  S
Co873       O875   2.015   1_655  S
Co874      O1045   1.989   1_554  S
O875      Co1044   1.990       .  S
C876        C979   1.519       .  S
C877        C993   1.479       .  S
C878        C965   1.492       .  S
C879        C926   1.488       .  S
O880        C888   1.272       .  A
O880       Co900   1.901       .  S
O881        C889   1.249       .  A
O881       Co901   1.937       .  S
O882        C890   1.267       .  A
O882       Co902   2.036       .  S
O883        C891   1.280       .  A
O883       Co903   2.037       .  S
O884        C890   1.241       .  A
O884       Co901   1.936       .  S
O885        C891   1.268       .  A
O885       Co900   1.966       .  S
O886        C889   1.276       .  A
O886       Co903   2.066       .  S
O887        C888   1.293       .  A
O887       Co902   2.085       .  S
C888        C968   1.491       .  S
C889        C923   1.488       .  S
C890        C996   1.479       .  S
C891        C982   1.519       .  S
O892        C905   1.266       .  A
O892       Co900   2.046       .  S
O893        C906   1.278       .  A
O893       Co901   2.037       .  S
O894        C907   1.271       .  A
O894       Co902   1.904       .  S
O895        C908   1.239       .  A
O895       Co903   1.924       .  S
O896        C908   1.274       .  A
O896       Co901   2.049       .  S
O897        C907   1.293       .  A
O897       Co900   2.091       .  S
O898        C905   1.236       .  A
O898       Co903   1.932       .  S
O899        C906   1.268       .  A
O899       Co902   1.970       .  S
Co900       O904   2.026       .  S
Co901       O904   2.012       .  S
Co902       O904   2.015       .  S
Co903       O904   1.989       .  S
C905        C951   1.506       .  S
C906        C937   1.509       .  S
C907       C1010   1.493       .  S
C908        C912   1.475       .  S
C909        C910   1.402       .  A
C909        C914   1.425       .  A
C910        C911   1.407       .  A
C910        C915   1.452       .  S
C911        C912   1.425       .  A
C911        C918   1.453       .  S
C912        C913   1.401       .  A
C913        C914   1.406       .  A
C913        C916   1.452       .  S
C914        C917   1.453       .  S
C915        N922   1.158       .  T
C916        N921   1.157       .  T
C917        N919   1.157       .  T
C918        N920   1.157       .  T
C923        C924   1.413       .  A
C923        C928   1.413       .  A
C924        C925   1.413       .  A
C924        C929   1.445       .  S
C925        C926   1.413       .  A
C925        C932   1.451       .  S
C926        C927   1.413       .  A
C927        C928   1.413       .  A
C927        C930   1.445       .  S
C928        C931   1.451       .  S
C929        N936   1.156       .  T
C930        N935   1.156   1_556  T
C931        N933   1.156       .  T
C932        N934   1.156       .  T
C937        C938   1.422       .  A
C937        C942   1.417       .  A
C938        C939   1.416       .  A
C938        C943   1.450       .  S
C939        C940   1.415       .  A
C939        C946   1.452       .  S
C940        C941   1.422       .  A
C941        C942   1.417       .  A
C941        C944   1.450       .  S
C942        C945   1.452       .  S
C943        N950   1.157       .  T
C944        N949   1.157       .  T
C945        N947   1.157       .  T
C946        N948   1.157       .  T
C951        C952   1.434       .  A
C951        C956   1.411       .  A
C952        C953   1.412       .  A
C952        C957   1.456       .  S
C953        C954   1.410       .  A
C953        C960   1.454       .  S
C954        C955   1.434       .  A
C955        C956   1.413       .  A
C955        C958   1.456       .  S
C956        C959   1.454       .  S
C957        N964   1.157       .  T
C958        N963   1.157       .  T
C959        N961   1.158       .  T
C960        N962   1.158       .  T
C965        C966   1.418       .  A
C965        C970   1.415       .  A
C966        C967   1.412       .  A
C966        C971   1.452       .  S
C967        C968   1.414       .  A
C967        C974   1.453       .  S
C968        C969   1.418       .  A
C969        C970   1.412       .  A
C969        C972   1.452       .  S
C970        C973   1.453       .  S
C971        N978   1.157       .  T
C972        N977   1.157       .  T
C974        N976   1.158       .  T
C979        C980   1.425       .  A
C979        C984   1.422       .  A
C980        C981   1.418       .  A
C980        C985   1.453       .  S
C981        C982   1.422       .  A
C981        C988   1.453       .  S
C982        C983   1.425       .  A
C983        C984   1.418       .  A
C983        C986   1.453       .  S
C984        C987   1.453       .  S
C985        N992   1.159   1_556  T
C986        N991   1.159       .  T
C987        N989   1.156       .  T
C988        N990   1.156       .  T
C993        C994   1.403       .  A
C993        C998   1.426       .  A
C994        C995   1.407       .  A
C994        C999   1.453       .  S
C995        C996   1.426       .  A
C995       C1002   1.453       .  S
C996        C997   1.403       .  A
C997        C998   1.407       .  A
C997       C1000   1.453       .  S
C998       C1001   1.453       .  S
C999       N1006   1.157       .  T
C1000      N1005   1.157       .  T
C1001      N1003   1.158       .  T
C1002      N1004   1.158       .  T
C1007      C1008   1.413       .  A
C1007      C1012   1.416       .  A
C1008      C1009   1.413       .  A
C1008      C1013   1.453       .  S
C1009      C1010   1.416       .  A
C1009      C1016   1.447       .  S
C1010      C1011   1.413       .  A
C1011      C1012   1.413       .  A
C1011      C1014   1.453       .  S
C1012      C1015   1.447       .  S
C1014      N1019   1.157       .  T
C1015      N1017   1.156       .  T
C1016      N1018   1.156       .  T
O1021      C1029   1.293       .  A
O1021     Co1041   2.092   1_554  S
O1022      C1030   1.274       .  A
O1022     Co1212   2.051   1_554  S
O1023      C1031   1.268       .  A
O1024      C1032   1.236       .  A
O1024     Co1214   1.932   1_655  S
O1025      C1031   1.278       .  A
O1026      C1032   1.266       .  A
O1027      C1030   1.239       .  A
O1028      C1029   1.271       .  A
O1028     Co1043   1.904       .  S
C1029      C1177   1.493       .  S
C1030      C1079   1.476       .  S
C1031      C1110   1.508       .  S
C1032      C1124   1.506       .  S
O1033      C1046   1.268       .  A
O1034      C1047   1.239       .  A
O1035      C1048   1.292       .  A
O1035     Co1213   2.082       .  S
O1036      C1049   1.276       .  A
O1037      C1049   1.248       .  A
O1037     Co1042   1.936       .  S
O1038      C1048   1.272       .  A
O1038     Co1211   1.904       .  S
O1039      C1046   1.282       .  A
O1039     Co1044   2.044   1_655  S
O1040      C1047   1.267       .  A
Co1041     O1208   1.901       .  S
Co1041     O1045   2.027   1_665  S
Co1042     O1192   2.051       .  S
Co1043     O1205   2.085   1_554  S
Co1043     O1045   2.015   1_664  S
Co1044     O1194   1.934   1_455  S
C1046      C1149   1.522       .  S
C1047      C1163   1.477       .  S
C1048      C1135   1.492       .  S
C1049      C1096   1.490       .  S
O1050      C1058   1.272       .  A
O1050     Co1070   1.905       .  S
O1051      C1059   1.247       .  A
O1051     Co1071   1.934       .  S
O1052      C1060   1.267       .  A
O1052     Co1072   2.034       .  S
O1053      C1061   1.282       .  A
O1053     Co1073   2.044       .  S
O1054      C1060   1.239       .  A
O1054     Co1071   1.934       .  S
O1055      C1061   1.268       .  A
O1055     Co1070   1.966       .  S
O1056      C1059   1.276       .  A
O1056     Co1073   2.068       .  S
O1057      C1058   1.293       .  A
O1057     Co1072   2.083       .  S
C1058      C1138   1.493       .  S
C1059      C1093   1.490       .  S
C1060      C1166   1.477       .  S
C1061      C1152   1.522       .  S
O1062      C1075   1.267       .  A
O1062     Co1070   2.044       .  S
O1063      C1076   1.278       .  A
O1063     Co1071   2.038       .  S
O1064      C1077   1.271       .  A
O1064     Co1072   1.905       .  S
O1065      C1078   1.239       .  A
O1065     Co1073   1.927       .  S
O1066      C1078   1.274       .  A
O1066     Co1071   2.052       .  S
O1067      C1077   1.293       .  A
O1067     Co1070   2.089       .  S
O1068      C1075   1.236       .  A
O1068     Co1073   1.934       .  S
O1069      C1076   1.268       .  A
O1069     Co1072   1.968       .  S
Co1070     O1074   2.028       .  S
Co1071     O1074   2.014       .  S
Co1072     O1074   2.016       .  S
Co1073     O1074   1.990       .  S
C1075      C1121   1.506       .  S
C1076      C1107   1.508       .  S
C1077      C1180   1.492       .  S
C1078      C1082   1.476       .  S
C1079      C1080   1.401       .  A
C1079      C1084   1.425       .  A
C1080      C1081   1.407       .  A
C1080      C1085   1.452       .  S
C1081      C1082   1.425       .  A
C1081      C1088   1.453       .  S
C1082      C1083   1.402       .  A
C1083      C1084   1.408       .  A
C1083      C1086   1.452       .  S
C1084      C1087   1.453       .  S
C1085      N1092   1.157       .  T
C1086      N1091   1.158       .  T
C1087      N1089   1.157       .  T
C1088      N1090   1.157       .  T
C1093      C1094   1.413       .  A
C1093      C1098   1.414       .  A
C1094      C1095   1.413       .  A
C1094      C1099   1.445       .  S
C1095      C1096   1.414       .  A
C1095      C1102   1.451       .  S
C1096      C1097   1.413       .  A
C1097      C1098   1.413       .  A
C1097      C1100   1.445       .  S
C1098      C1101   1.452       .  S
C1099      N1106   1.156       .  T
C1100      N1105   1.156       .  T
C1101      N1103   1.156       .  T
C1102      N1104   1.156       .  T
C1107      C1108   1.422       .  A
C1107      C1112   1.415       .  A
C1108      C1109   1.417       .  A
C1108      C1113   1.450       .  S
C1109      C1110   1.416       .  A
C1109      C1116   1.453       .  S
C1110      C1111   1.422       .  A
C1111      C1112   1.416       .  A
C1111      C1114   1.450       .  S
C1112      C1115   1.452       .  S
C1113      N1120   1.157       .  T
C1114      N1119   1.157   1_554  T
C1115      N1117   1.157       .  T
C1116      N1118   1.157       .  T
C1121      C1122   1.434       .  A
C1121      C1126   1.410       .  A
C1122      C1123   1.413       .  A
C1122      C1127   1.456       .  S
C1123      C1124   1.411       .  A
C1123      C1130   1.454       .  S
C1124      C1125   1.433       .  A
C1125      C1126   1.412       .  A
C1125      C1128   1.456       .  S
C1126      C1129   1.454       .  S
C1127      N1134   1.157       .  T
C1128      N1133   1.157       .  T
C1129      N1131   1.158       .  T
C1130      N1132   1.158       .  T
C1135      C1136   1.418       .  A
C1135      C1140   1.414       .  A
C1136      C1137   1.412       .  A
C1136      C1141   1.452       .  S
C1137      C1138   1.414       .  A
C1137      C1144   1.453       .  S
C1138      C1139   1.418       .  A
C1139      C1140   1.412       .  A
C1139      C1142   1.452       .  S
C1140      C1143   1.453       .  S
C1141      N1148   1.157       .  T
C1142      N1147   1.157       .  T
C1143      N1315   1.158       .  T
C1144      N1146   1.158       .  T
N1145      C1313   1.158       .  T
C1149      C1150   1.424       .  A
C1149      C1154   1.423       .  A
C1150      C1151   1.419       .  A
C1150      C1155   1.453       .  S
C1151      C1152   1.423       .  A
C1151      C1158   1.452       .  S
C1152      C1153   1.424       .  A
C1153      C1154   1.419       .  A
C1153      C1156   1.453       .  S
C1154      C1157   1.453       .  S
C1155      N1162   1.159       .  T
C1156      N1161   1.159       .  T
C1157      N1159   1.155       .  T
C1158      N1160   1.156       .  T
C1163      C1164   1.402       .  A
C1163      C1168   1.426       .  A
C1164      C1165   1.406       .  A
C1164      C1169   1.453       .  S
C1165      C1166   1.426       .  A
C1165      C1172   1.453       .  S
C1166      C1167   1.402       .  A
C1167      C1168   1.406       .  A
C1167      C1170   1.453       .  S
C1168      C1171   1.453       .  S
C1169      N1176   1.157       .  T
C1170      N1175   1.157       .  T
C1171      N1173   1.158   1_565  T
C1172      N1174   1.158       .  T
C1177      C1178   1.413       .  A
C1177      C1182   1.417       .  A
C1178      C1179   1.413       .  A
C1178      C1183   1.453       .  S
C1179      C1180   1.416       .  A
C1179      C1186   1.447       .  S
C1180      C1181   1.413       .  A
C1181      C1182   1.413       .  A
C1181      C1184   1.453       .  S
C1182      C1185   1.447       .  S
C1183      N1360   1.157       .  T
C1184      N1189   1.157       .  T
C1185      N1187   1.156       .  T
C1186      N1188   1.156       .  T
N1190      C1353   1.157       .  T
O1191      C1199   1.293       .  A
O1191     Co1211   2.090       .  S
O1192      C1200   1.274       .  A
O1193      C1201   1.268       .  A
O1194      C1202   1.236       .  A
O1195      C1201   1.279       .  A
O1196      C1202   1.267       .  A
O1197      C1200   1.239       .  A
O1198      C1199   1.271       .  A
O1198     Co1213   1.906       .  S
C1199      C1347   1.493       .  S
C1200      C1249   1.475       .  S
C1201      C1280   1.508       .  S
C1202      C1294   1.506       .  S
O1203      C1216   1.268       .  A
O1204      C1217   1.241       .  A
O1205      C1218   1.293       .  A
O1206      C1219   1.276       .  A
O1207      C1219   1.249       .  A
O1207     Co1212   1.937       .  S
O1208      C1218   1.272       .  A
O1209      C1216   1.280       .  A
O1209     Co1214   2.037   1_656  S
O1210      C1217   1.267       .  A
Co1211     O1215   2.026   1_665  S
Co1213     O1215   2.015   1_665  S
C1216      C1319   1.519       .  S
C1217      C1333   1.479       .  S
C1218      C1305   1.492       .  S
C1219      C1266   1.488       .  S
O1220      C1228   1.272       .  A
O1220     Co1240   1.901       .  S
O1221      C1229   1.248       .  A
O1221     Co1241   1.937       .  S
O1222      C1230   1.267       .  A
O1222     Co1242   2.036       .  S
O1223      C1231   1.280       .  A
O1223     Co1243   2.037       .  S
O1224      C1230   1.241       .  A
O1224     Co1241   1.936       .  S
O1225      C1231   1.268       .  A
O1225     Co1240   1.966       .  S
O1226      C1229   1.276       .  A
O1226     Co1243   2.066       .  S
O1227      C1228   1.293       .  A
O1227     Co1242   2.085       .  S
C1228      C1308   1.491       .  S
C1229      C1263   1.488       .  S
C1230      C1336   1.479       .  S
C1231      C1322   1.519       .  S
O1232      C1245   1.266       .  A
O1232     Co1240   2.046       .  S
O1233      C1246   1.278       .  A
O1233     Co1241   2.037       .  S
O1234      C1247   1.271       .  A
O1234     Co1242   1.904       .  S
O1235      C1248   1.239       .  A
O1235     Co1243   1.924       .  S
O1236      C1248   1.274       .  A
O1236     Co1241   2.049       .  S
O1237      C1247   1.293       .  A
O1237     Co1240   2.091       .  S
O1238      C1245   1.236       .  A
O1238     Co1243   1.932       .  S
O1239      C1246   1.268       .  A
O1239     Co1242   1.970       .  S
Co1240     O1244   2.026       .  S
Co1241     O1244   2.012       .  S
Co1242     O1244   2.015       .  S
Co1243     O1244   1.989       .  S
C1245      C1291   1.506       .  S
C1246      C1277   1.509       .  S
C1247      C1350   1.492       .  S
C1248      C1252   1.475       .  S
C1249      C1250   1.402       .  A
C1249      C1254   1.425       .  A
C1250      C1251   1.407       .  A
C1250      C1255   1.452       .  S
C1251      C1252   1.425       .  A
C1251      C1258   1.453       .  S
C1252      C1253   1.401       .  A
C1253      C1254   1.406       .  A
C1253      C1256   1.452       .  S
C1254      C1257   1.453       .  S
C1255      N1262   1.158       .  T
C1256      N1261   1.157       .  T
C1257      N1259   1.157       .  T
C1258      N1260   1.157       .  T
C1263      C1264   1.413       .  A
C1263      C1268   1.413       .  A
C1264      C1265   1.413       .  A
C1264      C1269   1.445       .  S
C1265      C1266   1.413       .  A
C1265      C1272   1.451       .  S
C1266      C1267   1.413       .  A
C1267      C1268   1.413       .  A
C1267      C1270   1.445       .  S
C1268      C1271   1.451       .  S
C1269      N1276   1.156       .  T
C1270      N1275   1.155   1_556  T
C1271      N1273   1.156       .  T
C1272      N1274   1.156       .  T
C1277      C1278   1.422       .  A
C1277      C1282   1.417       .  A
C1278      C1279   1.416       .  A
C1278      C1283   1.450       .  S
C1279      C1280   1.415       .  A
C1279      C1286   1.452       .  S
C1280      C1281   1.422       .  A
C1281      C1282   1.417       .  A
C1281      C1284   1.450       .  S
C1282      C1285   1.453       .  S
C1283      N1290   1.157       .  T
C1284      N1289   1.157       .  T
C1285      N1287   1.157       .  T
C1286      N1288   1.157       .  T
C1291      C1292   1.434       .  A
C1291      C1296   1.411       .  A
C1292      C1293   1.412       .  A
C1292      C1297   1.456       .  S
C1293      C1294   1.410       .  A
C1293      C1300   1.454       .  S
C1294      C1295   1.434       .  A
C1295      C1296   1.413       .  A
C1295      C1298   1.456       .  S
C1296      C1299   1.454       .  S
C1297      N1304   1.157       .  T
C1298      N1303   1.157       .  T
C1299      N1301   1.158       .  T
C1300      N1302   1.158       .  T
C1305      C1306   1.418       .  A
C1305      C1310   1.415       .  A
C1306      C1307   1.412       .  A
C1306      C1311   1.452       .  S
C1307      C1308   1.414       .  A
C1307      C1314   1.453       .  S
C1308      C1309   1.418       .  A
C1309      C1310   1.412       .  A
C1309      C1312   1.452       .  S
C1310      C1313   1.453       .  S
C1311      N1318   1.157       .  T
C1312      N1317   1.157       .  T
C1314      N1316   1.158       .  T
C1319      C1320   1.425       .  A
C1319      C1324   1.422       .  A
C1320      C1321   1.418       .  A
C1320      C1325   1.453       .  S
C1321      C1322   1.422       .  A
C1321      C1328   1.453       .  S
C1322      C1323   1.425       .  A
C1323      C1324   1.418       .  A
C1323      C1326   1.453       .  S
C1324      C1327   1.453       .  S
C1325      N1332   1.159   1_556  T
C1326      N1331   1.159       .  T
C1327      N1329   1.156       .  T
C1328      N1330   1.156       .  T
C1333      C1334   1.403       .  A
C1333      C1338   1.426       .  A
C1334      C1335   1.407       .  A
C1334      C1339   1.453       .  S
C1335      C1336   1.426       .  A
C1335      C1342   1.453       .  S
C1336      C1337   1.403       .  A
C1337      C1338   1.407       .  A
C1337      C1340   1.453       .  S
C1338      C1341   1.453       .  S
C1339      N1346   1.157       .  T
C1340      N1345   1.157       .  T
C1341      N1343   1.158       .  T
C1342      N1344   1.158       .  T
C1347      C1348   1.413       .  A
C1347      C1352   1.416       .  A
C1348      C1349   1.413       .  A
C1348      C1353   1.453       .  S
C1349      C1350   1.416       .  A
C1349      C1356   1.447       .  S
C1350      C1351   1.413       .  A
C1351      C1352   1.413       .  A
C1351      C1354   1.453       .  S
C1352      C1355   1.447       .  S
C1354      N1359   1.157       .  T
C1355      N1357   1.156       .  T
C1356      N1358   1.156       .  T
