geometry optimzed in LAMMPS
_audit_creation_date              2020-11-30 
_audit_creation_method            'lammps2cif' 
_symmetry_space_group_name_H-M    'P1' 
_symmetry_Int_Tables_number       1 
_symmetry_cell_setting            triclinic 
loop_ 
_symmetry_equiv_pos_as_xyz 
  x,y,z 
_cell_length_a                    32.77231633 
_cell_length_b                    32.765967751697225 
_cell_length_c                    41.93850710161511 
_cell_angle_alpha                 90.25886260184154 
_cell_angle_beta                  90.44382953365603 
_cell_angle_gamma                 121.58816585530668 
loop_ 
_atom_site_label 
_atom_site_type_symbol 
_atom_site_fract_x 
_atom_site_fract_y 
_atom_site_fract_z 
_atom_site_charge 
In1        In  0.80529264  0.61648457  0.24884216     1.36900
C2          C  0.77575268  0.54908075  0.20396073     0.77200
O3          O  0.87102198  0.66647988  0.22167797    -0.61200
O4          O  0.87644164  0.66710569  0.27194164    -0.52200
C5          C  0.76628959  0.67008185  0.24805692     0.69900
O6          O  0.77370944  0.65350439  0.22304077    -0.47000
C7          C  0.78308842  0.55566103  0.29685610     0.74600
O8          O  0.74786609  0.55991635  0.21667315    -0.58900
O9          O  0.82153092  0.57317889  0.28160563    -0.49000
O10         O  0.81865074  0.57434254  0.21314313    -0.55300
C11         C  0.89799336  0.68271126  0.24588686     0.84800
O12         O  0.77952918  0.65944320  0.27332486    -0.57200
O13         O  0.75656918  0.57102268  0.28839711    -0.60500
In14       In  0.80708469  0.19558263  0.24716075     1.36900
C15         C  0.77903171  0.22979455  0.20035401     0.77200
O16         O  0.78170232  0.12557565  0.22221440    -0.61200
O17         O  0.78060153  0.12551656  0.27241439    -0.52200
C18         C  0.90183006  0.23486445  0.24593964     0.69900
O19         O  0.87637269  0.22391477  0.22095733    -0.47000
C20         C  0.77066144  0.22367105  0.29306234     0.74600
O21         O  0.81803249  0.25559432  0.21531444    -0.58900
O22         O  0.74546023  0.19276179  0.27217523    -0.49000
O23         O  0.75630801  0.18649719  0.20841173    -0.55300
C24         C  0.77055855  0.10097883  0.24717267     0.84800
O25         O  0.87818481  0.22394014  0.27131798    -0.57200
O26         O  0.81474024  0.23893665  0.29119834    -0.60500
In27       In  0.60089928  0.79852864  0.23798881     1.36900
C28         C  0.53760744  0.76536047  0.28456104     0.77200
O29         O  0.64560136  0.86829480  0.26421414    -0.61200
O30         O  0.64698425  0.86882050  0.21385938    -0.52200
C31         C  0.66122191  0.76723301  0.24060080     0.69900
O32         O  0.63992890  0.76979837  0.26470419    -0.47000
C33         C  0.53567502  0.76825266  0.19072888     0.74600
O34         O  0.54596272  0.73847722  0.26790027    -0.58900
O35         O  0.55018004  0.80652216  0.20626692    -0.49000
O36         O  0.56273914  0.80914078  0.27777386    -0.55300
C37         C  0.66122317  0.89309483  0.23935387     0.84800
O38         O  0.65221114  0.78186284  0.21535914    -0.57200
O39         O  0.55644061  0.74642949  0.19844678    -0.60500
C40         C  0.68562280  0.34418407  0.42743265     0.86100
C41         C  0.71749431  0.39417913  0.41303170    -0.54100
C42         C  0.71883383  0.39440409  0.38054505     0.09000
C43         C  0.68816287  0.34454688  0.36520671     0.20000
C44         C  0.63610293  0.32406068  0.41089922    -0.54800
C45         C  0.63776987  0.32474445  0.37834778     0.09100
C46         C  0.70279263  0.31240859  0.41312808    -0.54400
C47         C  0.70553871  0.31371833  0.38068104     0.09700
H48         H  0.73584868  0.42679612  0.42732386     0.14200
H49         H  0.68876160  0.34452541  0.33875856     0.00000
H50         H  0.60230367  0.30836436  0.42329473     0.14500
H51         H  0.71014037  0.28947207  0.42742960     0.14300
C52         C  0.68104400  0.33996292  0.06852496     0.86100
C53         C  0.63065445  0.30976742  0.08329920    -0.54100
C54         C  0.63110809  0.31014974  0.11591503     0.09000
C55         C  0.68141897  0.33865227  0.13073192     0.20000
C56         C  0.70389567  0.38972338  0.08432600    -0.54800
C57         C  0.70370532  0.38882723  0.11677749     0.09100
C58         C  0.70818671  0.31743398  0.08315177    -0.54400
C59         C  0.70857298  0.31735961  0.11560667     0.09700
H60         H  0.59772273  0.29150089  0.06938073     0.14200
H61         H  0.68170975  0.33823387  0.15723760     0.00000
H62         H  0.71936622  0.42274108  0.07092133     0.14500
H63         H  0.72305084  0.30012571  0.06951399     0.14300
In64       In  0.19617852  0.80822445  0.23498324     1.36900
C65         C  0.22437037  0.76938239  0.27919870     0.77200
O66         O  0.13093487  0.78594822  0.26384173    -0.61200
O67         O  0.12545501  0.79084576  0.21404213    -0.52200
C68         C  0.23783404  0.90295135  0.23401365     0.69900
O69         O  0.22639149  0.87924094  0.25946764    -0.47000
C70         C  0.22155254  0.77464135  0.18647501     0.74600
O71         O  0.24516667  0.81402588  0.27515275    -0.58900
O72         O  0.17959486  0.75339946  0.19724537    -0.49000
O73         O  0.18861184  0.74515415  0.26118096    -0.55300
C74         C  0.10428146  0.78044393  0.24042266     0.84800
O75         O  0.22723210  0.87781044  0.20896387    -0.57200
O76         O  0.25008269  0.81469032  0.19939385    -0.60500
In77       In  0.40597608  0.20439929  0.24702666     1.36900
C78         C  0.47104466  0.23735962  0.20144613     0.77200
O79         O  0.36055109  0.22692212  0.22164842    -0.61200
O80         O  0.35970347  0.22611563  0.27196241    -0.52200
C81         C  0.34533567  0.11015034  0.24273368     0.69900
O82         O  0.36730927  0.13580839  0.21911969    -0.47000
C83         C  0.47162593  0.23811977  0.29398443     0.74600
O84         O  0.45380031  0.19622548  0.21311360    -0.58900
O85         O  0.45962600  0.26360510  0.27911964    -0.49000
O86         O  0.45303089  0.26050635  0.21198523    -0.55300
C87         C  0.34477944  0.23496710  0.24671293     0.84800
O88         O  0.35393385  0.13328063  0.26857073    -0.57200
O89         O  0.44771734  0.19449925  0.28604093    -0.60500
In90       In  0.20472695  0.39026304  0.23791572     1.36900
C91         C  0.23954275  0.45457247  0.19090272     0.77200
O92         O  0.13338291  0.33893840  0.21486664    -0.61200
O93         O  0.13502917  0.35460680  0.26388221    -0.52200
C94         C  0.23849845  0.33142788  0.23931958     0.69900
O95         O  0.23301378  0.34864907  0.21400786    -0.47000
C96         C  0.23439412  0.45564406  0.28410098     0.74600
O97         O  0.26581312  0.44959216  0.21055450    -0.58900
O98         O  0.19827538  0.44414132  0.26678835    -0.49000
O99         O  0.19549960  0.42458096  0.19432626    -0.55300
C100        C  0.10952747  0.33321983  0.23966410     0.84800
O101        O  0.22490104  0.34310053  0.26387813    -0.57200
O102        O  0.25410732  0.43207997  0.27861961    -0.60500
C103        C  0.32686849  0.66845156  0.41646639     0.86100
C104        C  0.30233248  0.61789308  0.40110764    -0.54100
C105        C  0.30293765  0.61817067  0.36863083     0.09000
C106        C  0.32859918  0.66839053  0.35423456     0.20000
C107        C  0.37777675  0.69338499  0.40243075    -0.54800
C108        C  0.37837541  0.69403768  0.36995372     0.09100
C109        C  0.30196997  0.69215596  0.40074295    -0.54400
C110        C  0.30319805  0.69268225  0.36820244     0.09700
H111        H  0.28792843  0.58485528  0.41431088     0.14200
H112        H  0.32970738  0.66829601  0.32775952     0.00000
H113        H  0.41037671  0.70850653  0.41673664     0.14500
H114        H  0.28314606  0.70518511  0.41446275     0.14300
C115        C  0.32142855  0.66409018  0.05748174     0.86100
C116        C  0.37173607  0.69386836  0.07322531    -0.54100
C117        C  0.37119489  0.69378342  0.10576750     0.09000
C118        C  0.32094347  0.66362169  0.11979476     0.20000
C119        C  0.30173713  0.61398519  0.07211719    -0.54800
C120        C  0.30068678  0.61375393  0.10468801     0.09100
C121        C  0.29233106  0.68371752  0.07231437    -0.54400
C122        C  0.29184953  0.68337821  0.10478878     0.09700
H123        H  0.40505228  0.71147666  0.06016727     0.14200
H124        H  0.32081961  0.66345683  0.14628958     0.03000
H125        H  0.29080146  0.58181319  0.05816437     0.14500
H126        H  0.27432933  0.69757967  0.05822880     0.14300
C127        C  0.35566891  0.70693226  0.00514093    -0.20700
C128        C  0.32039486  0.66557528  0.02089362    -0.07300
C129        C  0.28180453  0.63002645  0.00195287     0.13600
C130        C  0.28611909  0.63099423  0.46868590    -0.20700
C131        C  0.32473949  0.66967749  0.45296657    -0.07300
C132        C  0.35635340  0.71070336  0.47176854     0.13600
C133        C  0.38896450  0.75997178  0.45822901    -0.24100
H134        H  0.38126645  0.73816765  0.01889171     0.14900
H135        H  0.25680422  0.60261303  0.45496956     0.14900
C136        C  0.23384544  0.59275708  0.01512455    -0.24000
H137        H  0.38271560  0.78613241  0.47075499     0.05100
H138        H  0.38236193  0.76276599  0.43268613     0.08400
H139        H  0.42694049  0.77084149  0.46195814     0.08400
H140        H  0.22900112  0.59978048  0.04012325     0.08300
H141        H  0.22879584  0.55662119  0.01275617     0.08300
H142        H  0.20489141  0.59318264  0.00146074     0.05100
C143        C  0.22480110  0.49261399  0.14477253    -0.20700
C144        C  0.25779772  0.49336679  0.16674856    -0.07300
C145        C  0.30581907  0.53277657  0.16650764     0.13600
C146        C  0.31857883  0.57079957  0.14543347    -0.20700
C147        C  0.28510128  0.57040516  0.12421599    -0.07300
C148        C  0.23759416  0.53045740  0.12367979     0.13600
C149        C  0.19852741  0.52728800  0.10263978    -0.24100
H150        H  0.18793492  0.46280490  0.14466661     0.14900
H151        H  0.35488376  0.60143408  0.14576036     0.14900
C152        C  0.34382357  0.53597860  0.18867113    -0.24000
H153        H  0.16822424  0.52167246  0.11762936     0.05100
H154        H  0.18543436  0.49648909  0.08587109     0.08400
H155        H  0.21022875  0.56000662  0.08868224     0.08400
H156        H  0.34804829  0.50490056  0.18455227     0.08300
H157        H  0.33380370  0.53664246  0.21379297     0.08300
H158        H  0.37922061  0.56904955  0.18478876     0.05100
C159        C  0.21953734  0.50278125  0.32356481    -0.20700
C160        C  0.25259736  0.49478153  0.30798934    -0.07300
C161        C  0.30223962  0.52653823  0.31366167     0.13600
C162        C  0.31742101  0.56640784  0.33370288    -0.20700
C163        C  0.28443143  0.57436985  0.34903636    -0.07300
C164        C  0.23494528  0.54183371  0.34452395     0.13600
C165        C  0.19852612  0.54879196  0.36132875    -0.24100
H166        H  0.18156447  0.47844463  0.31927898     0.14900
H167        H  0.35531897  0.59162511  0.33741708     0.14900
C168        C  0.33955132  0.51983623  0.29790744    -0.24000
H169        H  0.16132764  0.52047664  0.35466520     0.05100
H170        H  0.20360103  0.58399186  0.35506711     0.08400
H171        H  0.20275096  0.54749591  0.38753023     0.08400
H172        H  0.33535595  0.51921785  0.27160398     0.08300
H173        H  0.33573604  0.48574810  0.30584276     0.08300
H174        H  0.37650567  0.54927603  0.30416945     0.05100
C175        C  0.29807763  0.26188092  0.21606651    -0.20700
C176        C  0.31292087  0.25478859  0.24598642    -0.07300
C177        C  0.29901808  0.26903686  0.27378721     0.13600
C178        C  0.27318557  0.29216039  0.27068327    -0.20700
C179        C  0.26095558  0.30191255  0.24064763    -0.07300
C180        C  0.27253539  0.28523780  0.21296814     0.13600
C181        C  0.25858206  0.29191193  0.17992751    -0.24100
H182        H  0.30758678  0.25017823  0.19473979     0.14900
H183        H  0.26376359  0.30403981  0.29200756     0.14900
C184        C  0.31176369  0.26104703  0.30685756    -0.24000
H185        H  0.26862452  0.27453908  0.16138957     0.05100
H186        H  0.27721794  0.33062601  0.17427680     0.08400
H187        H  0.21917289  0.27563129  0.17836259     0.08400
H188        H  0.35127351  0.28091059  0.31006041     0.08300
H189        H  0.29648298  0.22218249  0.31065479     0.08300
H190        H  0.29727929  0.27390671  0.32562124     0.05100
C191        C  0.21936468  0.70300337  0.16668147    -0.20700
C192        C  0.23668181  0.75183225  0.16289879    -0.07300
C193        C  0.26939393  0.77728743  0.13833025     0.13600
C194        C  0.28505214  0.75327105  0.11880537    -0.20700
C195        C  0.26952135  0.70484680  0.12371879    -0.07300
C196        C  0.23539888  0.67921921  0.14761296     0.13600
C197        C  0.21440516  0.62676731  0.15364623    -0.24100
H198        H  0.19401440  0.68335760  0.18544691     0.14900
H199        H  0.31098142  0.77285907  0.10034410     0.14900
C200        C  0.28733958  0.82931247  0.13238559    -0.24000
H201        H  0.17479855  0.60746959  0.15122954     0.05100
H202        H  0.22398144  0.62174419  0.17817013     0.08400
H203        H  0.22703958  0.61031097  0.13664757     0.08400
H204        H  0.30848996  0.85144981  0.15325078     0.08300
H205        H  0.25651496  0.83394679  0.12810829     0.08300
H206        H  0.31080778  0.84281611  0.11121120     0.05100
C207        C  0.26842145  0.77564820  0.32916339    -0.20700
C208        C  0.24106052  0.74760462  0.30293287    -0.07300
C209        C  0.23219238  0.70057370  0.29937925     0.13600
C210        C  0.25212702  0.68373679  0.32157476    -0.20700
C211        C  0.27991746  0.71191902  0.34762107    -0.07300
C212        C  0.28754294  0.75839781  0.35174224     0.13600
C213        C  0.31675115  0.79088848  0.37914791    -0.24100
H214        H  0.27484577  0.81143283  0.33207435     0.14900
H215        H  0.24640571  0.64827769  0.31830085     0.14900
C216        C  0.20354935  0.66839894  0.27168159    -0.24000
H217        H  0.32393367  0.82772669  0.37609607     0.05100
H218        H  0.35173003  0.79352463  0.38112361     0.08400
H219        H  0.29704360  0.77717643  0.40173888     0.08400
H220        H  0.22022858  0.68612549  0.24884857     0.08300
H221        H  0.16615508  0.66022411  0.27249501     0.08300
H222        H  0.20197677  0.63370650  0.27224277     0.05100
C223        C  0.31756430  0.03464806  0.21250435    -0.20700
C224        C  0.31396659  0.05716217  0.24004871    -0.07300
C225        C  0.28241749  0.02839593  0.26446403     0.13600
C226        C  0.25680968  0.97835267  0.26096579    -0.20700
C227        C  0.26215533  0.95591823  0.23412498    -0.07300
C228        C  0.29261301  0.98456361  0.20930936     0.13600
C229        C  0.30096421  0.96290959  0.18014005    -0.24100
H230        H  0.34161428  0.05641522  0.19366890     0.14900
H231        H  0.23302303  0.95637345  0.27983494     0.14900
C232        C  0.27560337  0.04962305  0.29443905    -0.24000
H233        H  0.32748343  0.99078175  0.16394617     0.05100
H234        H  0.26698475  0.94130616  0.16645166     0.08400
H235        H  0.31497278  0.93989047  0.18735754     0.08400
H236        H  0.26389938  0.07488526  0.28824248     0.08300
H237        H  0.30958469  0.06855095  0.30841575     0.08300
H238        H  0.24794553  0.02166193  0.31004916     0.05100
C239        C  0.58545287  0.32183212  0.15760126    -0.20700
C240        C  0.58782903  0.29045006  0.13588878    -0.07300
C241        C  0.55139640  0.24145665  0.13564386     0.13600
C242        C  0.51317328  0.22533975  0.15693750    -0.20700
C243        C  0.51030222  0.25702637  0.17815362    -0.07300
C244        C  0.54698349  0.30599097  0.17847937     0.13600
C245        C  0.54712599  0.34140794  0.20168464    -0.24100
H246        H  0.61428997  0.35896708  0.15856248     0.14900
H247        H  0.48546354  0.18765622  0.15718587     0.14900
C248        C  0.55362347  0.20565588  0.11420764    -0.24000
H249        H  0.57981166  0.37758994  0.19951461     0.05100
H250        H  0.54587155  0.32918446  0.22652589     0.08400
H251        H  0.51577100  0.34497864  0.19696815     0.08400
H252        H  0.58756032  0.20670455  0.11835793     0.08300
H253        H  0.55125315  0.21374957  0.08886445     0.08300
H254        H  0.52359380  0.16851781  0.11867180     0.05100
C255        C  0.65035389  0.34827159  0.48039331    -0.20700
C256        C  0.68659544  0.34613140  0.46405364    -0.07300
C257        C  0.72539933  0.35078466  0.48260318     0.13600
C258        C  0.72144681  0.34690985  0.01583144    -0.20700
C259        C  0.68236418  0.34356912  0.03205385    -0.07300
C260        C  0.64940946  0.34998594  0.01383178     0.13600
C261        C  0.61447292  0.36163301  0.02809601    -0.24100
H262        H  0.62403292  0.35197995  0.46721371     0.14900
H263        H  0.75127409  0.34978318  0.02913854     0.14900
C264        C  0.77279822  0.36224530  0.46905875    -0.24000
H265        H  0.61770378  0.39316806  0.01585069     0.05100
H266        H  0.62127287  0.37172235  0.05362460     0.08400
H267        H  0.57731866  0.33073488  0.02468130     0.08400
H268        H  0.77753533  0.37322107  0.44385195     0.08300
H269        H  0.77690443  0.33088194  0.47174689     0.08300
H270        H  0.80245192  0.39304486  0.48238755     0.05100
C271        C  0.54432524  0.30881009  0.31690007    -0.20700
C272        C  0.51225691  0.25893197  0.31727474    -0.07300
C273        C  0.52163774  0.23092100  0.33830654     0.13600
C274        C  0.56208306  0.25373435  0.35861420    -0.20700
C275        C  0.59439155  0.30336651  0.35758451    -0.07300
C276        C  0.58568075  0.33116050  0.33618878     0.13600
C277        C  0.61953209  0.38442887  0.33364270    -0.24100
H278        H  0.53789819  0.33047441  0.30061752     0.14900
H279        H  0.56943652  0.23256554  0.37476449     0.14900
C280        C  0.48986940  0.17713882  0.33943607    -0.24000
H281        H  0.60611298  0.40078290  0.31663961     0.05100
H282        H  0.65465544  0.39213563  0.32487080     0.08400
H283        H  0.62391322  0.40151970  0.35733017     0.08400
H284        H  0.49052907  0.16126305  0.31614766     0.08300
H285        H  0.45263014  0.16682592  0.34506655     0.08300
H286        H  0.50204044  0.16157481  0.35794474     0.05100
C287        C  0.44396692  0.69549381  0.12471263    -0.20700
C288        C  0.41518946  0.71544161  0.12577748    -0.07300
C289        C  0.42740861  0.75388131  0.14684965     0.13600
C290        C  0.46765362  0.77089450  0.16689867    -0.20700
C291        C  0.49587681  0.75010054  0.16684605    -0.07300
C292        C  0.48403218  0.71205537  0.14507981     0.13600
C293        C  0.51322961  0.68879411  0.14288006    -0.24100
H294        H  0.43421122  0.66591699  0.10839486     0.14900
H295        H  0.47635432  0.80003353  0.18335893     0.14900
C296        C  0.39828149  0.77727340  0.14814485    -0.24000
H297        H  0.49981122  0.66123123  0.12360699     0.05100
H298        H  0.51134588  0.67072273  0.16561304     0.08400
H299        H  0.55106145  0.71627834  0.13762494     0.08400
H300        H  0.36167628  0.75121606  0.15652469     0.08300
H301        H  0.39622858  0.79014475  0.12409074     0.08300
H302        H  0.41429491  0.80844556  0.16481714     0.05100
C303        C  0.48046265  0.77590887  0.31593573    -0.20700
C304        C  0.49988561  0.74757407  0.30895098    -0.07300
C305        C  0.48187262  0.70322488  0.32458722     0.13600
C306        C  0.44375732  0.68780454  0.34588542    -0.20700
C307        C  0.42262436  0.71490483  0.35114319    -0.07300
C308        C  0.44173266  0.75982440  0.33654666     0.13600
C309        C  0.42139982  0.79091446  0.34269047    -0.24100
H310        H  0.49450537  0.81010646  0.30438732     0.14900
H311        H  0.42949700  0.65378768  0.35789372     0.14900
C312        C  0.50263423  0.67220522  0.31921448    -0.24000
H313        H  0.44114145  0.82537901  0.32976496     0.05100
H314        H  0.42393890  0.79911666  0.36859604     0.08400
H315        H  0.38348337  0.77204782  0.33459441     0.08400
H316        H  0.54168438  0.69301826  0.32461362     0.08300
H317        H  0.49638419  0.65918492  0.29414630     0.08300
H318        H  0.48578747  0.64021345  0.33475878     0.05100
C319        C  0.79320692  0.28982808  0.15902640    -0.20700
C320        C  0.76050484  0.24917749  0.17637059    -0.07300
C321        C  0.71069458  0.22964366  0.17192711     0.13600
C322        C  0.69518272  0.25288661  0.15179600    -0.20700
C323        C  0.72776962  0.29342850  0.13472485    -0.07300
C324        C  0.77728119  0.31165348  0.13769064     0.13600
C325        C  0.81323789  0.35485482  0.11921108    -0.24100
H326        H  0.83127953  0.30458319  0.16222414     0.14900
H327        H  0.65734367  0.23947217  0.14942885     0.14900
C328        C  0.67339112  0.18502538  0.18868408    -0.24000
H329        H  0.85058199  0.36526176  0.12514424     0.05100
H330        H  0.80934051  0.38576258  0.12473960     0.08400
H331        H  0.80738764  0.34692169  0.09325215     0.08400
H332        H  0.67864723  0.18988745  0.21484102     0.08300
H333        H  0.67597334  0.15401507  0.18096460     0.08300
H334        H  0.63644540  0.17622556  0.18305799     0.05100
C335        C  0.77933212  0.26672360  0.34395741    -0.20700
C336        C  0.75078506  0.24169397  0.31723878    -0.07300
C337        C  0.70564753  0.23736586  0.31331570     0.13600
C338        C  0.69103958  0.25897153  0.33564736    -0.20700
C339        C  0.72047090  0.28572067  0.36144358    -0.07300
C340        C  0.76493106  0.28901085  0.36603173     0.13600
C341        C  0.79860177  0.31778516  0.39304300    -0.24100
H342        H  0.81367010  0.26990358  0.34718560     0.14900
H343        H  0.65691699  0.25636626  0.33234109     0.14900
C344        C  0.67367253  0.21278200  0.28477289    -0.24000
H345        H  0.83327763  0.31954442  0.39129575     0.05100
H346        H  0.78269231  0.30092280  0.41613602     0.08400
H347        H  0.80624348  0.35500742  0.39271079     0.08400
H348        H  0.66253581  0.17444241  0.28405659     0.08300
H349        H  0.69319202  0.23105800  0.26280457     0.08300
H350        H  0.64057427  0.21424794  0.28533308     0.05100
C351        C  0.97673137  0.26164676  0.21588950    -0.20700
C352        C  0.95495059  0.25891881  0.24519684    -0.07300
C353        C  0.98444033  0.28046251  0.27255803     0.13600
C354        C  0.03433713  0.30301904  0.26987079    -0.20700
C355        C  0.05618719  0.30567186  0.24059638    -0.07300
C356        C  0.02673788  0.28477912  0.21312468     0.13600
C357        C  0.04727446  0.28723391  0.18063397    -0.24100
H358        H  0.95443651  0.24580485  0.19479139     0.14900
H359        H  0.05656030  0.31956890  0.29090810     0.14900
C360        C  0.96420365  0.28142262  0.30456312    -0.24000
H361        H  0.01883320  0.26894851  0.16206982     0.05100
H362        H  0.06823548  0.26942233  0.18107391     0.08400
H363        H  0.07051823  0.32520208  0.17344869     0.08400
H364        H  0.94078715  0.24436920  0.31336026     0.08300
H365        H  0.94352208  0.29943088  0.30247269     0.08300
H366        H  0.99279592  0.30138783  0.32281062     0.05100
C367        C  0.70739856  0.96898671  0.27051276    -0.20700
C368        C  0.69235064  0.94626532  0.24050649    -0.07300
C369        C  0.70555239  0.97496242  0.21283619     0.13600
C370        C  0.73210142  0.02500863  0.21612315    -0.20700
C371        C  0.74591661  0.04777726  0.24613587    -0.07300
C372        C  0.73375481  0.01913671  0.27378646     0.13600
C373        C  0.74774328  0.04066986  0.30685251    -0.24100
H374        H  0.69770954  0.94728570  0.29181975     0.14900
H375        H  0.74131816  0.04663074  0.19481103     0.14900
C376        C  0.69150044  0.95370700  0.17967873    -0.24000
H377        H  0.73615320  0.01277331  0.32542780     0.05100
H378        H  0.73051447  0.06141999  0.31209858     0.08400
H379        H  0.78729199  0.06434522  0.30877219     0.08400
H380        H  0.65187962  0.93201107  0.17718645     0.08300
H381        H  0.70683259  0.93108729  0.17488595     0.08300
H382        H  0.70502640  0.98176123  0.16109365     0.05100
C383        C  0.97754434  0.72405324  0.27254365    -0.20700
C384        C  0.95090831  0.71440847  0.24414204    -0.07300
C385        C  0.97563625  0.73105862  0.21493742     0.13600
C386        C  0.02581387  0.75492822  0.21501190    -0.20700
C387        C  0.05215966  0.76137832  0.24314370    -0.07300
C388        C  0.02756315  0.74643593  0.27248397     0.13600
C389        C  0.05299425  0.75201608  0.30382355    -0.24100
H390        H  0.95891684  0.71169016  0.29498080     0.14900
H391        H  0.04444514  0.76670324  0.19254133     0.14900
C392        C  0.94994711  0.72268481  0.18334565    -0.24000
H393        H  0.02789640  0.73893010  0.32417446     0.05100
H394        H  0.08003168  0.79040583  0.30844524     0.08400
H395        H  0.07054758  0.73081176  0.30331875     0.08400
H396        H  0.92669522  0.73797208  0.18405705     0.08300
H397        H  0.92813439  0.68372330  0.17788433     0.08300
H398        H  0.97534151  0.73989627  0.16339303     0.05100
C399        C  0.72188412  0.49960629  0.15952607    -0.20700
C400        C  0.75934070  0.50937057  0.18072778    -0.07300
C401        C  0.77898331  0.47979425  0.18027338     0.13600
C402        C  0.76034381  0.44115176  0.15875093    -0.20700
C403        C  0.72356150  0.43198971  0.13724446    -0.07300
C404        C  0.70399095  0.46147346  0.13752631     0.13600
C405        C  0.66332385  0.45197904  0.11545657    -0.24100
H406        H  0.70666105  0.52207569  0.16011240     0.14900
H407        H  0.77431469  0.41761283  0.15885110     0.14900
C408        C  0.81816975  0.48737721  0.20316383    -0.24000
H409        H  0.65077491  0.47700333  0.12015951     0.05100
H410        H  0.63250098  0.41496215  0.11854852     0.08400
H411        H  0.67513060  0.45667750  0.09033703     0.08400
H412        H  0.80668303  0.48662813  0.22811232     0.08300
H413        H  0.85135594  0.52228738  0.19851630     0.08300
H414        H  0.82696155  0.45907449  0.20055614     0.05100
C415        C  0.78876787  0.48846547  0.31786382    -0.20700
C416        C  0.76961621  0.51791773  0.32101670    -0.07300
C417        C  0.73722851  0.50908788  0.34597681     0.13600
C418        C  0.72402955  0.47033537  0.36639922    -0.20700
C419        C  0.74062622  0.43903876  0.36170292    -0.07300
C420        C  0.77426512  0.44882762  0.33760332     0.13600
C421        C  0.79590988  0.41842335  0.33305967    -0.24100
H422        H  0.81399101  0.49539398  0.29901437     0.14900
H423        H  0.69855566  0.46286608  0.38518282     0.14900
C424        C  0.71621632  0.53989891  0.35129129    -0.24000
H425        H  0.82378257  0.43308961  0.31437338     0.05100
H426        H  0.76817840  0.38154276  0.32562559     0.08400
H427        H  0.81298345  0.41725658  0.35570211     0.08400
H428        H  0.69342393  0.53670606  0.33058139     0.08300
H429        H  0.74541723  0.57787381  0.35468558     0.08300
H430        H  0.69332686  0.52885571  0.37277285     0.05100
C431        C  0.73691741  0.71458144  0.21767799    -0.20700
C432        C  0.74323923  0.69886766  0.24737510    -0.07300
C433        C  0.72596364  0.70957178  0.27509208     0.13600
C434        C  0.70098187  0.73344573  0.27199911    -0.20700
C435        C  0.69255601  0.74701622  0.24209062    -0.07300
C436        C  0.71215605  0.73866372  0.21460320     0.13600
C437        C  0.70709200  0.75441223  0.18183245    -0.24100
H438        H  0.75095175  0.70740102  0.19647894     0.14900
H439        H  0.68690456  0.74055911  0.29322121     0.14900
C440        C  0.73221245  0.69494485  0.30796061    -0.24000
H441        H  0.72562448  0.74565259  0.16345146     0.05100
H442        H  0.72327644  0.79385731  0.18175016     0.08400
H443        H  0.66870702  0.73599702  0.17476487     0.08400
H444        H  0.77091272  0.71207577  0.31382074     0.08300
H445        H  0.71438826  0.65535239  0.30903721     0.08300
H446        H  0.71611999  0.70616778  0.32663705     0.05100
In447      In  0.80529918  0.61647969  0.74885428     1.36900
C448        C  0.77574642  0.54908454  0.70396860     0.77200
O449        O  0.87103591  0.66644896  0.72168946    -0.61200
O450        O  0.87644401  0.66711798  0.77195492    -0.52200
C451        C  0.76629358  0.67007306  0.74806240     0.69900
O452        O  0.77372179  0.65349964  0.72304758    -0.47000
C453        C  0.78308497  0.55564560  0.79686408     0.74600
O454        O  0.74786396  0.55992364  0.71668368    -0.58900
O455        O  0.82151432  0.57313748  0.78160090    -0.49000
O456        O  0.81864513  0.57433853  0.71315088    -0.55300
C457        C  0.89800134  0.68270136  0.74589959     0.84800
O458        O  0.77952862  0.65943408  0.77333222    -0.57200
O459        O  0.75658805  0.57104008  0.78842031    -0.60500
In460      In  0.80708515  0.19559179  0.74716990     1.36900
C461        C  0.77902176  0.22981375  0.70037200     0.77200
O462        O  0.78169281  0.12558524  0.72221790    -0.61200
O463        O  0.78064886  0.12552803  0.77241859    -0.52200
C464        C  0.90183412  0.23488729  0.74594223     0.69900
O465        O  0.87637020  0.22392021  0.72096179    -0.47000
C466        C  0.77064530  0.22364906  0.79307870     0.74600
O467        O  0.81803127  0.25560674  0.71532449    -0.58900
O468        O  0.74544706  0.19271911  0.77220168    -0.49000
O469        O  0.75629261  0.18651828  0.70843380    -0.55300
C470        C  0.77058352  0.10098915  0.74717543     0.84800
O471        O  0.87819399  0.22397467  0.77132268    -0.57200
O472        O  0.81473064  0.23895079  0.79120222    -0.60500
In473      In  0.60090961  0.79853014  0.73799033     1.36900
C474        C  0.53762013  0.76536349  0.78456559     0.77200
O475        O  0.64560609  0.86830122  0.76421293    -0.61200
O476        O  0.64702424  0.86882086  0.71385949    -0.52200
C477        C  0.66122419  0.76722300  0.74059995     0.69900
O478        O  0.63995658  0.76981858  0.76470785    -0.47000
C479        C  0.53567321  0.76825312  0.69073571     0.74600
O480        O  0.54598919  0.73848184  0.76791434    -0.58900
O481        O  0.55019102  0.80652963  0.70626815    -0.49000
O482        O  0.56273855  0.80914104  0.77776871    -0.55300
C483        C  0.66124971  0.89309880  0.73935328     0.84800
O484        O  0.65219174  0.78182755  0.71535500    -0.57200
O485        O  0.55643314  0.74642523  0.69845537    -0.60500
C486        C  0.68559003  0.34415697  0.92743507     0.86100
C487        C  0.71745591  0.39414921  0.91302920    -0.54100
C488        C  0.71878894  0.39436748  0.88054242     0.09000
C489        C  0.68811848  0.34450709  0.86520886     0.20000
C490        C  0.63606660  0.32402665  0.91090627    -0.54800
C491        C  0.63772947  0.32470362  0.87835540     0.09100
C492        C  0.70276002  0.31238135  0.91313213    -0.54400
C493        C  0.70550211  0.31368526  0.88068512     0.09700
H494        H  0.73581278  0.42676899  0.92731836     0.14200
H495        H  0.68870617  0.34448352  0.83875998     0.00000
H496        H  0.60226908  0.30833039  0.92330394     0.14500
H497        H  0.71010988  0.28944769  0.92743524     0.14300
C498        C  0.68104507  0.33997820  0.56852593     0.86100
C499        C  0.63065260  0.30978699  0.58329776    -0.54100
C500        C  0.63110112  0.31017356  0.61591398     0.09000
C501        C  0.68140980  0.33867361  0.63073345     0.20000
C502        C  0.70389603  0.38974040  0.58432473    -0.54800
C503        C  0.70370044  0.38884652  0.61677628     0.09100
C504        C  0.70818361  0.31744865  0.58315957    -0.54400
C505        C  0.70856460  0.31737751  0.61561487     0.09700
H506        H  0.59772296  0.29152217  0.56937697     0.14200
H507        H  0.68169686  0.33825829  0.65723917     0.00000
H508        H  0.71937028  0.42275744  0.57091873     0.14500
H509        H  0.72305011  0.30013915  0.56952572     0.14300
In510      In  0.19618299  0.80821390  0.73498260     1.36900
C511        C  0.22439116  0.76937639  0.77919095     0.77200
O512        O  0.13094207  0.78592782  0.76384452    -0.61200
O513        O  0.12545642  0.79083377  0.71404631    -0.52200
C514        C  0.23783062  0.90293948  0.73401911     0.69900
O515        O  0.22639972  0.87922724  0.75947223    -0.47000
C516        C  0.22154365  0.77463496  0.68646692     0.74600
O517        O  0.24518098  0.81401997  0.77514760    -0.58900
O518        O  0.17959384  0.75338299  0.69725063    -0.49000
O519        O  0.18863458  0.74514603  0.76117225    -0.55300
C520        C  0.10428591  0.78042630  0.74042787     0.84800
O521        O  0.22722153  0.87780071  0.70896773    -0.57200
O522        O  0.25007228  0.81469201  0.69937664    -0.60500
In523      In  0.40595412  0.20439483  0.74702204     1.36900
C524        C  0.47102936  0.23739267  0.70144236     0.77200
O525        O  0.36055103  0.22693804  0.72163534    -0.61200
O526        O  0.35964108  0.22606720  0.77194837    -0.52200
C527        C  0.34531655  0.11014225  0.74273767     0.69900
O528        O  0.36728185  0.13579841  0.71912090    -0.47000
C529        C  0.47160394  0.23808596  0.79398155     0.74600
O530        O  0.45372008  0.19621831  0.71305684    -0.58900
O531        O  0.45954391  0.26356250  0.77916784    -0.49000
O532        O  0.45307561  0.26056705  0.71203390    -0.55300
C533        C  0.34474777  0.23495021  0.74669748     0.84800
O534        O  0.35391850  0.13327691  0.76857348    -0.57200
O535        O  0.44775360  0.19448467  0.78598712    -0.60500
In536      In  0.20473420  0.39028274  0.73790704     1.36900
C537        C  0.23954594  0.45460076  0.69090120     0.77200
O538        O  0.13338771  0.33897198  0.71485543    -0.61200
O539        O  0.13503765  0.35463011  0.76387363    -0.52200
C540        C  0.23849635  0.33144031  0.73930484     0.69900
O541        O  0.23304244  0.34869102  0.71399707    -0.47000
C542        C  0.23441395  0.45565934  0.78409471     0.74600
O543        O  0.26581584  0.44963277  0.71056019    -0.58900
O544        O  0.19828205  0.44414713  0.76679351    -0.49000
O545        O  0.19550435  0.42459146  0.69431288    -0.55300
C546        C  0.10953401  0.33325034  0.73965451     0.84800
O547        O  0.22487372  0.34308815  0.76386232    -0.57200
O548        O  0.25413481  0.43210600  0.77860055    -0.60500
C549        C  0.32687429  0.66844751  0.91647154     0.86100
C550        C  0.30234662  0.61789127  0.90111038    -0.54100
C551        C  0.30295864  0.61817348  0.86863361     0.09000
C552        C  0.32861777  0.66839358  0.85423956     0.20000
C553        C  0.37778661  0.69338906  0.90243975    -0.54800
C554        C  0.37839065  0.69404344  0.86996216     0.09100
C555        C  0.30197389  0.69214853  0.90074517    -0.54400
C556        C  0.30320939  0.69267879  0.86820467     0.09700
H557        H  0.28794021  0.58485172  0.91431185     0.14200
H558        H  0.32973105  0.66830121  0.82776462     0.00000
H559        H  0.41038419  0.70851564  0.91674844     0.14500
H560        H  0.28314455  0.70517325  0.91446276     0.14300
C561        C  0.32144273  0.66410487  0.55747521     0.86100
C562        C  0.37174927  0.69388735  0.57322061    -0.54100
C563        C  0.37120488  0.69380552  0.60576274     0.09000
C564        C  0.32095290  0.66364303  0.61978792     0.20000
C565        C  0.30175322  0.61400216  0.57211276    -0.54800
C566        C  0.30070007  0.61377523  0.60468323     0.09100
C567        C  0.29234045  0.68372979  0.57230404    -0.54400
C568        C  0.29185659  0.68339352  0.60477847     0.09700
H569        H  0.40506735  0.71149294  0.56016434     0.14200
H570        H  0.32082705  0.66348057  0.64628269     0.03000
H571        H  0.29081889  0.58182875  0.55816196     0.14500
H572        H  0.27433481  0.69758490  0.55821600     0.14300
C573        C  0.35568630  0.70693795  0.50513333    -0.20700
C574        C  0.32040861  0.66558483  0.52088727    -0.07300
C575        C  0.28181382  0.63003760  0.50194803     0.13600
C576        C  0.28611732  0.63098081  0.96869066    -0.20700
C577        C  0.32473641  0.66966901  0.95297248    -0.07300
C578        C  0.35633816  0.71069812  0.97177579     0.13600
C579        C  0.38893447  0.75997004  0.95823687    -0.24100
H580        H  0.38128963  0.73817190  0.51888283     0.14900
H581        H  0.25680814  0.60259536  0.95497333     0.14900
C582        C  0.23385749  0.59276505  0.51512101    -0.24000
H583        H  0.38266434  0.78611881  0.97075910     0.05100
H584        H  0.38233638  0.76275926  0.93269247     0.08400
H585        H  0.42691478  0.77085882  0.96197147     0.08400
H586        H  0.22901264  0.59979106  0.54011868     0.08300
H587        H  0.22881449  0.55663161  0.51275509     0.08300
H588        H  0.20489956  0.59318243  0.50145609     0.05100
C589        C  0.22480605  0.49264447  0.64477274    -0.20700
C590        C  0.25780071  0.49339910  0.66675121    -0.07300
C591        C  0.30582070  0.53281198  0.66651541     0.13600
C592        C  0.31858442  0.57082994  0.64543684    -0.20700
C593        C  0.28511031  0.57043049  0.62421405    -0.07300
C594        C  0.23760151  0.53048622  0.62367878     0.13600
C595        C  0.19853513  0.52731955  0.60263950    -0.24100
H596        H  0.18793983  0.46283595  0.64466597     0.14900
H597        H  0.35488845  0.60146477  0.64576530     0.14900
C598        C  0.34381952  0.53602449  0.68868976    -0.24000
H599        H  0.16823307  0.52170577  0.61762975     0.05100
H600        H  0.18543962  0.49652067  0.58587068     0.08400
H601        H  0.21023831  0.56003910  0.58868245     0.08400
H602        H  0.34805284  0.50495011  0.68457942     0.08300
H603        H  0.33378780  0.53669053  0.71380843     0.08300
H604        H  0.37921553  0.56909823  0.68481085     0.05100
C605        C  0.21956000  0.50280243  0.82355304    -0.20700
C606        C  0.25261943  0.49479369  0.80798553    -0.07300
C607        C  0.30226162  0.52653938  0.81366793     0.13600
C608        C  0.31744317  0.56640806  0.83371015    -0.20700
C609        C  0.28445329  0.57437689  0.84903620    -0.07300
C610        C  0.23496743  0.54185192  0.84451395     0.13600
C611        C  0.19854805  0.54881556  0.86131347    -0.24100
H612        H  0.18158758  0.47847445  0.81926032     0.14900
H613        H  0.35534191  0.59161922  0.83743183     0.14900
C614        C  0.33957384  0.51982812  0.79792378    -0.24000
H615        H  0.16134980  0.52050752  0.85464328     0.05100
H616        H  0.20363291  0.58402028  0.85505498     0.08400
H617        H  0.20276229  0.54751085  0.88751540     0.08400
H618        H  0.33539385  0.51921736  0.77161924     0.08300
H619        H  0.33574437  0.48573392  0.80585942     0.08300
H620        H  0.37652805  0.54925993  0.80419433     0.05100
C621        C  0.29808793  0.26190812  0.71604683    -0.20700
C622        C  0.31289235  0.25477511  0.74596849    -0.07300
C623        C  0.29896163  0.26899429  0.77376993     0.13600
C624        C  0.27313810  0.29212717  0.77066606    -0.20700
C625        C  0.26094580  0.30191810  0.74063019    -0.07300
C626        C  0.27255647  0.28527570  0.71294859     0.13600
C627        C  0.25865125  0.29199910  0.67990558    -0.24100
H628        H  0.30762162  0.25023095  0.69471893     0.14900
H629        H  0.26369465  0.30398422  0.79199121     0.14900
C630        C  0.31166986  0.26096577  0.80684128    -0.24000
H631        H  0.26871642  0.27464991  0.66136453     0.05100
H632        H  0.27730018  0.33072182  0.67427854     0.08400
H633        H  0.21924462  0.27572499  0.67831788     0.08400
H634        H  0.35117637  0.28082274  0.81006285     0.08300
H635        H  0.29638125  0.22209626  0.81062109     0.08300
H636        H  0.29716761  0.27380726  0.82560471     0.05100
C637        C  0.21936858  0.70300390  0.66667597    -0.20700
C638        C  0.23666875  0.75182796  0.66288709    -0.07300
C639        C  0.26936415  0.77728184  0.63831036     0.13600
C640        C  0.28502908  0.75327096  0.61878619    -0.20700
C641        C  0.26951737  0.70485285  0.62370614    -0.07300
C642        C  0.23540605  0.67922450  0.64760631     0.13600
C643        C  0.21442811  0.62677690  0.65364561    -0.24100
H644        H  0.19403011  0.68335873  0.68544759     0.14900
H645        H  0.31094996  0.77285969  0.60032063     0.14900
C646        C  0.28728607  0.82929967  0.63235707    -0.24000
H647        H  0.17482027  0.60746856  0.65123515     0.05100
H648        H  0.22401734  0.62176413  0.67816825     0.08400
H649        H  0.22706338  0.61032419  0.63664572     0.08400
H650        H  0.30844290  0.85145104  0.65321592     0.08300
H651        H  0.25644925  0.83391639  0.62808526     0.08300
H652        H  0.31074142  0.84280128  0.61117654     0.05100
C653        C  0.26843312  0.77564111  0.82915971    -0.20700
C654        C  0.24108258  0.74760035  0.80292541    -0.07300
C655        C  0.23222466  0.70057372  0.79936896     0.13600
C656        C  0.25215384  0.68373617  0.82156815    -0.20700
C657        C  0.27993100  0.71191435  0.84761995    -0.07300
C658        C  0.28755077  0.75839084  0.85174142     0.13600
C659        C  0.31675034  0.79088009  0.87914991    -0.24100
H660        H  0.27485258  0.81142394  0.83207127     0.14900
H661        H  0.24644138  0.64828108  0.81829150     0.14900
C662        C  0.20360529  0.66840805  0.77166176    -0.24000
H663        H  0.32392923  0.82771716  0.87609855     0.05100
H664        H  0.35173100  0.79352057  0.88112894     0.08400
H665        H  0.29703822  0.77716390  0.90173882     0.08400
H666        H  0.22029652  0.68614907  0.74883476     0.08300
H667        H  0.16620609  0.66022031  0.77246503     0.08300
H668        H  0.20204526  0.63372150  0.77221913     0.05100
C669        C  0.31753746  0.03463839  0.71250661    -0.20700
C670        C  0.31395273  0.05715169  0.74005607    -0.07300
C671        C  0.28242121  0.02838261  0.76447798     0.13600
C672        C  0.25681388  0.97833898  0.76097899    -0.20700
C673        C  0.26214773  0.95590631  0.73413248    -0.07300
C674        C  0.29259132  0.98455385  0.70931219     0.13600
C675        C  0.30093463  0.96290235  0.68013818    -0.24100
H676        H  0.34157402  0.05640666  0.69366605     0.14900
H677        H  0.23303831  0.95635829  0.77985207     0.14900
C678        C  0.27562598  0.04960730  0.79446094    -0.24000
H679        H  0.32744464  0.99077614  0.66394099     0.05100
H680        H  0.26695042  0.94129456  0.66645549     0.08400
H681        H  0.31495176  0.93988820  0.68734969     0.08400
H682        H  0.26391299  0.07486588  0.78827540     0.08300
H683        H  0.30961781  0.06853891  0.80842634     0.08300
H684        H  0.24798199  0.02164456  0.81007718     0.05100
C685        C  0.58545394  0.32186232  0.65760504    -0.20700
C686        C  0.58782024  0.29048076  0.63588632    -0.07300
C687        C  0.55137803  0.24149160  0.63563599     0.13600
C688        C  0.51315062  0.22537981  0.65692531    -0.20700
C689        C  0.51028925  0.25706497  0.67814926    -0.07300
C690        C  0.54698489  0.30602536  0.67848359     0.13600
C691        C  0.54714634  0.34144218  0.70169848    -0.24100
H692        H  0.61429996  0.35899293  0.65857206     0.14900
H693        H  0.48543340  0.18769897  0.65716712     0.14900
C694        C  0.55360375  0.20568737  0.61420253    -0.24000
H695        H  0.57984072  0.37761885  0.69953229     0.05100
H696        H  0.54589048  0.32920738  0.72653665     0.08400
H697        H  0.51580039  0.34503055  0.69698904     0.08400
H698        H  0.58753619  0.20672911  0.61835989     0.08300
H699        H  0.55124364  0.21378303  0.58885834     0.08300
H700        H  0.52356803  0.16855130  0.61866384     0.05100
C701        C  0.65033290  0.34825243  0.98039798    -0.20700
C702        C  0.68657179  0.34611172  0.96405511    -0.07300
C703        C  0.72538182  0.35077103  0.98260029     0.13600
C704        C  0.72145587  0.34691879  0.51583453    -0.20700
C705        C  0.68237185  0.34358174  0.53205358    -0.07300
C706        C  0.64942278  0.35000200  0.51382707     0.13600
C707        C  0.61448460  0.36165051  0.52808659    -0.24100
H708        H  0.62400788  0.35195705  0.96722090     0.14900
H709        H  0.75127835  0.34978656  0.52914458     0.14900
C710        C  0.77277905  0.36223384  0.96905187    -0.24000
H711        H  0.61771624  0.39318398  0.51583839     0.05100
H712        H  0.62128222  0.37174312  0.55361468     0.08400
H713        H  0.57733070  0.33075181  0.52467135     0.08400
H714        H  0.77750905  0.37320302  0.94384404     0.08300
H715        H  0.77689091  0.33087431  0.97174287     0.08300
H716        H  0.80243360  0.39303887  0.98237639     0.05100
C717        C  0.54421366  0.30878759  0.81698069    -0.20700
C718        C  0.51223241  0.25888999  0.81727446    -0.07300
C719        C  0.52170025  0.23085858  0.83822713     0.13600
C720        C  0.56213436  0.25366797  0.85854413    -0.20700
C721        C  0.59435191  0.30332129  0.85759535    -0.07300
C722        C  0.58556611  0.33113839  0.83627257     0.13600
C723        C  0.61935342  0.38442616  0.83379656    -0.24100
H724        H  0.53772648  0.33047041  0.80075537     0.14900
H725        H  0.56955378  0.23248524  0.87463570     0.14900
C726        C  0.49004056  0.17705979  0.83925932    -0.24000
H727        H  0.60589330  0.40079559  0.81683869     0.05100
H728        H  0.65449276  0.39220637  0.82500411     0.08400
H729        H  0.62371632  0.40143645  0.85751272     0.08400
H730        H  0.49075264  0.16131061  0.81593022     0.08300
H731        H  0.45277354  0.16662823  0.84490992     0.08300
H732        H  0.50227238  0.16147571  0.85771275     0.05100
C733        C  0.44395725  0.69549204  0.62472303    -0.20700
C734        C  0.41519591  0.71545813  0.62577596    -0.07300
C735        C  0.42742053  0.75390297  0.64684448     0.13600
C736        C  0.46765931  0.77090768  0.66689936    -0.20700
C737        C  0.49587095  0.75010032  0.66685504    -0.07300
C738        C  0.48401419  0.71204318  0.64509643     0.13600
C739        C  0.51318736  0.68875428  0.64291281    -0.24100
H740        H  0.43419396  0.66590809  0.60841041     0.14900
H741        H  0.47636571  0.80005227  0.68335608     0.14900
C742        C  0.39830508  0.77730851  0.64812862    -0.24000
H743        H  0.49976135  0.66118320  0.62364483     0.05100
H744        H  0.51128524  0.67068683  0.66565137     0.08400
H745        H  0.55102577  0.71622064  0.63766000     0.08400
H746        H  0.36169316  0.75125813  0.65650135     0.08300
H747        H  0.39626689  0.79018252  0.62407213     0.08300
H748        H  0.41431835  0.80848023  0.66480109     0.05100
C749        C  0.48045314  0.77589912  0.81592270    -0.20700
C750        C  0.49989665  0.74757782  0.80895479    -0.07300
C751        C  0.48190215  0.70324277  0.82460628     0.13600
C752        C  0.44378781  0.68782368  0.84590567    -0.20700
C753        C  0.42264013  0.71491329  0.85115159    -0.07300
C754        C  0.44172557  0.75981658  0.83653549     0.13600
C755        C  0.42137345  0.79089395  0.84266170    -0.24100
H756        H  0.49447903  0.81008422  0.80436077     0.14900
H757        H  0.42953798  0.65381478  0.85792268     0.14900
C758        C  0.50268188  0.67223651  0.81924750    -0.24000
H759        H  0.44109757  0.82534604  0.82972086     0.05100
H760        H  0.42391976  0.79912119  0.86856345     0.08400
H761        H  0.38345372  0.77200637  0.83457145     0.08400
H762        H  0.54173294  0.69306642  0.82464285     0.08300
H763        H  0.49643125  0.65919911  0.79418335     0.08300
H764        H  0.48584919  0.64025620  0.83480225     0.05100
C765        C  0.79319694  0.28984889  0.65904398    -0.20700
C766        C  0.76049447  0.24920141  0.67639085    -0.07300
C767        C  0.71068447  0.22967157  0.67194833     0.13600
C768        C  0.69517347  0.25291461  0.65181577    -0.20700
C769        C  0.72776102  0.29345144  0.63474032    -0.07300
C770        C  0.77727222  0.31167299  0.63770577     0.13600
C771        C  0.81322983  0.35486607  0.61922006    -0.24100
H772        H  0.83126930  0.30460032  0.66223942     0.14900
H773        H  0.65733484  0.23950079  0.64944751     0.14900
C774        C  0.67337957  0.18505319  0.68870418    -0.24000
H775        H  0.85057365  0.36527195  0.62515383     0.05100
H776        H  0.80933632  0.38577803  0.62474171     0.08400
H777        H  0.80737741  0.34692300  0.59326243     0.08400
H778        H  0.67863729  0.18991138  0.71486069     0.08300
H779        H  0.67595848  0.15404205  0.68098210     0.08300
H780        H  0.63643455  0.17625736  0.68308023     0.05100
C781        C  0.77929964  0.26668514  0.84397678    -0.20700
C782        C  0.75075824  0.24165769  0.81725626    -0.07300
C783        C  0.70562025  0.23732655  0.81332914     0.13600
C784        C  0.69100714  0.25893111  0.83565768    -0.20700
C785        C  0.72043712  0.28568630  0.86145252    -0.07300
C786        C  0.76489638  0.28897572  0.86604626     0.13600
C787        C  0.79856583  0.31775406  0.89305702    -0.24100
H788        H  0.81363662  0.26986422  0.84720838     0.14900
H789        H  0.65688461  0.25632395  0.83234828     0.14900
C790        C  0.67365488  0.21274873  0.78478193    -0.24000
H791        H  0.83324175  0.31951297  0.89131242     0.05100
H792        H  0.78265598  0.30089476  0.91615060     0.08400
H793        H  0.80620807  0.35497626  0.89272120     0.08400
H794        H  0.66252239  0.17441055  0.78406069     0.08300
H795        H  0.69318250  0.23103499  0.76281839     0.08300
H796        H  0.64055427  0.21421057  0.78533888     0.05100
C797        C  0.97673347  0.26166969  0.71588704    -0.20700
C798        C  0.95495602  0.25894723  0.74519519    -0.07300
C799        C  0.98445038  0.28050069  0.77255336     0.13600
C800        C  0.03434689  0.30305821  0.76986314    -0.20700
C801        C  0.05619345  0.30570534  0.74058835    -0.07300
C802        C  0.02674036  0.28480502  0.71311906     0.13600
C803        C  0.04727316  0.28725028  0.68062836    -0.24100
H804        H  0.95443574  0.24582033  0.69479106     0.14900
H805        H  0.05657272  0.31961308  0.79089867     0.14900
C806        C  0.96421939  0.28147087  0.80455851    -0.24000
H807        H  0.01882947  0.26895587  0.66206666     0.05100
H808        H  0.06823736  0.26944210  0.68107205     0.08400
H809        H  0.07051334  0.32521603  0.67343708     0.08400
H810        H  0.94080648  0.24442051  0.81336171     0.08300
H811        H  0.94353568  0.29947653  0.80246534     0.08300
H812        H  0.99281495  0.30144409  0.82280273     0.05100
C813        C  0.70743249  0.96899264  0.77051273    -0.20700
C814        C  0.69238555  0.94627087  0.74050629    -0.07300
C815        C  0.70559441  0.97496995  0.71283665     0.13600
C816        C  0.73214305  0.02501732  0.71612415    -0.20700
C817        C  0.74595305  0.04778636  0.74613719    -0.07300
C818        C  0.73378962  0.01914361  0.77378701     0.13600
C819        C  0.74776982  0.04067571  0.80685355    -0.24100
H820        H  0.69773968  0.94729113  0.79181954     0.14900
H821        H  0.74136205  0.04663977  0.69481229     0.14900
C822        C  0.69154853  0.95371486  0.67967910    -0.24000
H823        H  0.73617604  0.01277872  0.82542884     0.05100
H824        H  0.73053832  0.06142451  0.81209569     0.08400
H825        H  0.78731793  0.06435217  0.80877733     0.08400
H826        H  0.65192798  0.93201971  0.67718367     0.08300
H827        H  0.70688018  0.93109376  0.67488992     0.08300
H828        H  0.70507944  0.98176914  0.66109407     0.05100
C829        C  0.97755181  0.72401762  0.77255506    -0.20700
C830        C  0.95091570  0.71439654  0.74415595    -0.07300
C831        C  0.97564227  0.73106898  0.71495273     0.13600
C832        C  0.02581945  0.75493536  0.71502516    -0.20700
C833        C  0.05216511  0.76136038  0.74315294    -0.07300
C834        C  0.02756991  0.74639657  0.77249265     0.13600
C835        C  0.05300149  0.75194933  0.80382788    -0.24100
H836        H  0.95892461  0.71163704  0.79499106     0.14900
H837        H  0.04445031  0.76672893  0.69255551     0.14900
C838        C  0.94995179  0.72272633  0.68336455    -0.24000
H839        H  0.02790442  0.73884765  0.82417913     0.05100
H840        H  0.08004045  0.79033506  0.80846193     0.08400
H841        H  0.07055315  0.73074383  0.80330699     0.08400
H842        H  0.92669793  0.73801054  0.68409381     0.08300
H843        H  0.92814100  0.68377045  0.67788530     0.08300
H844        H  0.97534571  0.73995965  0.66341424     0.05100
C845        C  0.72188430  0.49962537  0.65952657    -0.20700
C846        C  0.75933125  0.50937743  0.68073386    -0.07300
C847        C  0.77896422  0.47979264  0.68028290     0.13600
C848        C  0.76033102  0.44115909  0.65875431    -0.20700
C849        C  0.72355825  0.43200828  0.63724292    -0.07300
C850        C  0.70399085  0.46149448  0.63752509     0.13600
C851        C  0.66332286  0.45199979  0.61545641    -0.24100
H852        H  0.70666687  0.52209979  0.66011165     0.14900
H853        H  0.77429609  0.41761527  0.65885551     0.14900
C854        C  0.81813102  0.48735437  0.70318464    -0.24000
H855        H  0.65077718  0.47702707  0.62015793     0.05100
H856        H  0.63249874  0.41498435  0.61855198     0.08400
H857        H  0.67512634  0.45669195  0.59033635     0.08400
H858        H  0.80662892  0.48659888  0.72812971     0.08300
H859        H  0.85132709  0.52226099  0.69854782     0.08300
H860        H  0.82691291  0.45904433  0.70057880     0.05100
C861        C  0.78873908  0.48843170  0.81786497    -0.20700
C862        C  0.76959964  0.51789431  0.82102114    -0.07300
C863        C  0.73720649  0.50906279  0.84597835     0.13600
C864        C  0.72399624  0.47030378  0.86639679    -0.20700
C865        C  0.74058236  0.43899920  0.86169734    -0.07300
C866        C  0.77422004  0.44878396  0.83759770     0.13600
C867        C  0.79584609  0.41836426  0.83304608    -0.24100
H868        H  0.81396413  0.49535895  0.79901719     0.14900
H869        H  0.69852316  0.46283707  0.88518011     0.14900
C870        C  0.71619790  0.53987678  0.85129388    -0.24000
H871        H  0.82372451  0.43303172  0.81436358     0.05100
H872        H  0.76810590  0.38149231  0.82560181     0.08400
H873        H  0.81290777  0.41717522  0.85568789     0.08400
H874        H  0.69341333  0.53669320  0.83058154     0.08300
H875        H  0.74540060  0.57784937  0.85469508     0.08300
H876        H  0.69330072  0.52882830  0.87277179     0.05100
C877        C  0.73689961  0.71454818  0.71767711    -0.20700
C878        C  0.74323925  0.69885497  0.74737717    -0.07300
C879        C  0.72598097  0.70957904  0.77509443     0.13600
C880        C  0.70099789  0.73345128  0.77199952    -0.20700
C881        C  0.69255518  0.74700236  0.74208916    -0.07300
C882        C  0.71213875  0.73863073  0.71460056     0.13600
C883        C  0.70705973  0.75436098  0.68182704    -0.24100
H884        H  0.75092065  0.70735278  0.69647749     0.14900
H885        H  0.68693431  0.74058037  0.79322226     0.14900
C886        C  0.73225354  0.69497973  0.80796628    -0.24000
H887        H  0.72558412  0.74559146  0.66344580     0.05100
H888        H  0.72324384  0.79380588  0.68173545     0.08400
H889        H  0.66867174  0.73594189  0.67476676     0.08400
H890        H  0.77095795  0.71211420  0.81381442     0.08300
H891        H  0.71442872  0.65538844  0.80905780     0.08300
H892        H  0.71617629  0.70622012  0.82664265     0.05100
loop_ 
_geom_bond_atom_site_label_1 
_geom_bond_atom_site_label_2 
_geom_bond_distance 
_geom_bond_site_symmetry_2 
_ccdc_geom_bond_type 
In1           O3   2.232       .  S
In1           O4   2.242       .  S
In1          O12   2.235       .  S
In1           O6   2.241       .  S
In1           O8   2.254       .  S
In1           O9   2.232       .  S
In1          O10   2.228       .  S
In1          O13   2.257       .  S
C2            O8   1.261       .  A
C2           O10   1.257       .  A
C2          C400   1.476       .  S
O3           C11   1.258       .  A
O4           C11   1.262       .  A
C5           O12   1.260       .  A
C5            O6   1.262       .  A
C5          C432   1.486       .  S
C7            O9   1.259       .  A
C7           O13   1.261       .  A
C7          C416   1.482       .  S
C11         C384   1.486       .  S
In14         O16   2.239       .  S
In14         O17   2.257       .  S
In14         O25   2.237       .  S
In14         O19   2.251       .  S
In14         O21   2.252       .  S
In14         O22   2.242       .  S
In14         O23   2.221       .  S
In14         O26   2.256       .  S
C15          O21   1.262       .  A
C15          O23   1.258       .  A
C15         C320   1.478       .  S
O16          C24   1.258       .  A
O17          C24   1.259       .  A
C18          O25   1.260       .  A
C18          O19   1.262       .  A
C18         C352   1.489       .  S
C20          O22   1.257       .  A
C20          O26   1.260       .  A
C20         C336   1.486       .  S
C24         C371   1.489       .  S
In27         O29   2.242       .  S
In27         O30   2.238       .  S
In27         O38   2.238       .  S
In27         O32   2.242       .  S
In27         O34   2.243       .  S
In27         O35   2.242       .  S
In27         O36   2.225       .  S
In27         O39   2.262       .  S
C28          O34   1.261       .  A
C28          O36   1.260       .  A
C28         C304   1.478       .  S
O29          C37   1.261       .  A
O30          C37   1.261       .  A
C31          O38   1.259       .  A
C31          O32   1.260       .  A
C31         C435   1.486       .  S
C33          O35   1.259       .  A
C33          O39   1.260       .  A
C33         C291   1.490       .  S
C37         C368   1.488       .  S
C40          C41   1.538       .  S
C40          C46   1.541       .  S
C40          C44   1.551       .  S
C40         C256   1.536       .  S
C41          H48   1.086       .  S
C41          C42   1.363       .  D
C42          C43   1.534       .  S
C42         C419   1.483       .  S
C43          C47   1.539       .  S
C43          C45   1.532       .  S
C43          H49   1.110       .  S
C44          H50   1.085       .  S
C44          C45   1.366       .  D
C45         C275   1.484       .  S
C46          H51   1.083       .  S
C46          C47   1.364       .  D
C47         C339   1.484       .  S
C52          C53   1.549       .  S
C52          C58   1.548       .  S
C52          C56   1.537       .  S
C52         C259   1.534       .  S
C53          H60   1.084       .  S
C53          C54   1.368       .  D
C54          C55   1.531       .  S
C54         C240   1.481       .  S
C55          C59   1.528       .  S
C55          C57   1.528       .  S
C55          H61   1.112       .  S
C56          H62   1.086       .  S
C56          C57   1.361       .  D
C57         C403   1.475       .  S
C58          H63   1.085       .  S
C58          C59   1.361       .  D
C59         C323   1.472       .  S
In64         O66   2.232       .  S
In64         O67   2.247       .  S
In64         O75   2.244       .  S
In64         O69   2.236       .  S
In64         O71   2.255       .  S
In64         O72   2.228       .  S
In64         O73   2.242       .  S
In64         O76   2.246       .  S
C65          O71   1.262       .  A
C65          O73   1.257       .  A
C65         C208   1.485       .  S
O66          C74   1.257       .  A
O67          C74   1.261       .  A
C68          O75   1.261       .  A
C68          O69   1.262       .  A
C68         C227   1.483       .  S
C70          O72   1.261       .  A
C70          O76   1.261       .  A
C70         C192   1.473       .  S
C74         C387   1.486       .  S
In77         O79   2.242       .  S
In77         O80   2.247       .  S
In77         O88   2.244       .  S
In77         O82   2.235       .  S
In77         O84   2.241       .  S
In77         O85   2.243       .  S
In77         O86   2.238       .  S
In77         O89   2.256       .  S
C78          O84   1.260       .  A
C78          O86   1.261       .  A
C78         C243   1.477       .  S
O79          C87   1.261       .  A
O80          C87   1.260       .  A
C81          O88   1.262       .  A
C81          O82   1.261       .  A
C81         C224   1.487       .  S
C83          O85   1.259       .  A
C83          O89   1.259       .  A
C83         C272   1.488       .  S
C87         C176   1.491       .  S
In90         O92   2.250       .  S
In90         O93   2.241       .  S
In90        O101   2.255       .  S
In90         O95   2.247       .  S
In90         O97   2.254       .  S
In90         O98   2.237       .  S
In90         O99   2.250       .  S
In90        O102   2.241       .  S
C91          O97   1.259       .  A
C91          O99   1.260       .  A
C91         C144   1.491       .  S
O92         C100   1.260       .  A
O93         C100   1.260       .  A
C94         O101   1.260       .  A
C94          O95   1.259       .  A
C94         C179   1.492       .  S
C96          O98   1.260       .  A
C96         O102   1.261       .  A
C96         C160   1.477       .  S
C100        C355   1.490       .  S
C103        C104   1.547       .  S
C103        C109   1.538       .  S
C103        C107   1.546       .  S
C103        C131   1.534       .  S
C104        H111   1.084       .  S
C104        C105   1.362       .  D
C105        C106   1.532       .  S
C105        C163   1.474       .  S
C106        C110   1.539       .  S
C106        C108   1.531       .  S
C106        H112   1.111       .  S
C107        H113   1.086       .  S
C107        C108   1.362       .  D
C108        C307   1.475       .  S
C109        H114   1.083       .  S
C109        C110   1.366       .  D
C110        C211   1.491       .  S
C115        C116   1.549       .  S
C115        C121   1.536       .  S
C115        C119   1.547       .  S
C115        C128   1.536       .  S
C116        H123   1.085       .  S
C116        C117   1.365       .  D
C117        C118   1.533       .  S
C117        C288   1.480       .  S
C118        C122   1.538       .  S
C118        C120   1.536       .  S
C118        H124   1.111       .  S
C119        H125   1.085       .  S
C119        C120   1.367       .  D
C120        C147   1.485       .  S
C121        H126   1.087       .  S
C121        C122   1.362       .  D
C122        C195   1.485       .  S
C127        C128   1.410       .  A
C127        C578   1.405   1_554  A
C127        H134   1.082       .  S
C128        C129   1.421       .  A
C129        C136   1.508       .  S
C129        C576   1.402   1_554  A
C130        C131   1.408       .  A
C130        C575   1.402       .  A
C130        H135   1.081       .  S
C131        C132   1.422       .  A
C132        C133   1.510       .  S
C132        C573   1.405       .  A
C133        H137   1.111       .  S
C133        H138   1.105       .  S
C133        H139   1.110       .  S
C136        H140   1.103       .  S
C136        H141   1.110       .  S
C136        H142   1.111       .  S
C143        C144   1.406       .  A
C143        C148   1.402       .  A
C143        H150   1.085       .  S
C144        C145   1.420       .  A
C145        C152   1.507       .  S
C145        C146   1.406       .  A
C146        C147   1.402       .  A
C146        H151   1.083       .  S
C147        C148   1.415       .  A
C148        C149   1.507       .  S
C149        H153   1.111       .  S
C149        H154   1.110       .  S
C149        H155   1.103       .  S
C152        H156   1.110       .  S
C152        H157   1.109       .  S
C152        H158   1.111       .  S
C159        C160   1.406       .  A
C159        C164   1.404       .  A
C159        H166   1.083       .  S
C160        C161   1.416       .  A
C161        C168   1.507       .  S
C161        C162   1.401       .  A
C162        C163   1.398       .  A
C162        H167   1.082       .  S
C163        C164   1.409       .  A
C164        C165   1.507       .  S
C165        H169   1.110       .  S
C165        H170   1.109       .  S
C165        H171   1.110       .  S
C168        H172   1.109       .  S
C168        H173   1.110       .  S
C168        H174   1.111       .  S
C175        C176   1.406       .  A
C175        C180   1.405       .  A
C175        H182   1.082       .  S
C176        C177   1.418       .  A
C177        C184   1.508       .  S
C177        C178   1.407       .  A
C178        C179   1.407       .  A
C178        H183   1.083       .  S
C179        C180   1.417       .  A
C180        C181   1.508       .  S
C181        H185   1.110       .  S
C181        H186   1.110       .  S
C181        H187   1.111       .  S
C184        H188   1.110       .  S
C184        H189   1.110       .  S
C184        H190   1.111       .  S
C191        C192   1.400       .  A
C191        C196   1.397       .  A
C191        H198   1.086       .  S
C192        C193   1.412       .  A
C193        C200   1.507       .  S
C193        C194   1.406       .  A
C194        C195   1.406       .  A
C194        H199   1.085       .  S
C195        C196   1.415       .  A
C196        C197   1.503       .  S
C197        H201   1.110       .  S
C197        H202   1.111       .  S
C197        H203   1.098       .  S
C200        H204   1.109       .  S
C200        H205   1.111       .  S
C200        H206   1.111       .  S
C207        C208   1.404       .  A
C207        C212   1.406       .  A
C207        H214   1.083       .  S
C208        C209   1.418       .  A
C209        C216   1.509       .  S
C209        C210   1.404       .  A
C210        C211   1.403       .  A
C210        H215   1.083       .  S
C211        C212   1.418       .  A
C212        C213   1.508       .  S
C213        H217   1.110       .  S
C213        H218   1.106       .  S
C213        H219   1.107       .  S
C216        H220   1.111       .  S
C216        H221   1.110       .  S
C216        H222   1.111       .  S
C223        C224   1.406       .  A
C223        C228   1.404   1_545  A
C223        H230   1.086       .  S
C224        C225   1.418       .  A
C225        C232   1.508       .  S
C225        C226   1.403   1_545  A
C226        C227   1.403       .  A
C226        H231   1.086       .  S
C227        C228   1.416       .  A
C228        C229   1.509       .  S
C229        H233   1.111       .  S
C229        H234   1.110       .  S
C229        H235   1.111       .  S
C232        H236   1.110       .  S
C232        H237   1.110       .  S
C232        H238   1.111       .  S
C239        C240   1.403       .  A
C239        C244   1.400       .  A
C239        H246   1.081       .  S
C240        C241   1.412       .  A
C241        C248   1.507       .  S
C241        C242   1.405       .  A
C242        C243   1.405       .  A
C242        H247   1.084       .  S
C243        C244   1.414       .  A
C244        C245   1.509       .  S
C245        H249   1.111       .  S
C245        H250   1.111       .  S
C245        H251   1.110       .  S
C248        H252   1.107       .  S
C248        H253   1.109       .  S
C248        H254   1.111       .  S
C255        C256   1.409       .  A
C255        C706   1.404       .  A
C255        H262   1.080       .  S
C256        C257   1.423       .  A
C257        C264   1.510       .  S
C257        C704   1.401       .  A
C258        C259   1.408       .  A
C258        C703   1.401   1_554  A
C258        H263   1.082       .  S
C259        C260   1.422       .  A
C260        C261   1.510       .  S
C260        C701   1.404   1_554  A
C261        H265   1.111       .  S
C261        H266   1.105       .  S
C261        H267   1.110       .  S
C264        H268   1.104       .  S
C264        H269   1.110       .  S
C264        H270   1.111       .  S
C271        C272   1.406       .  A
C271        C276   1.402       .  A
C271        H278   1.083       .  S
C272        C273   1.419       .  A
C273        C280   1.507       .  S
C273        C274   1.407       .  A
C274        C275   1.402       .  A
C274        H279   1.084       .  S
C275        C276   1.411       .  A
C276        C277   1.505       .  S
C277        H281   1.111       .  S
C277        H282   1.108       .  S
C277        H283   1.109       .  S
C280        H284   1.110       .  S
C280        H285   1.110       .  S
C280        H286   1.111       .  S
C287        C288   1.402       .  A
C287        C292   1.407       .  A
C287        H294   1.084       .  S
C288        C289   1.408       .  A
C289        C296   1.506       .  S
C289        C290   1.402       .  A
C290        C291   1.407       .  A
C290        H295   1.084       .  S
C291        C292   1.420       .  A
C292        C293   1.507       .  S
C293        H297   1.111       .  S
C293        H298   1.110       .  S
C293        H299   1.110       .  S
C296        H300   1.108       .  S
C296        H301   1.110       .  S
C296        H302   1.111       .  S
C303        C304   1.404       .  A
C303        C308   1.399       .  A
C303        H310   1.082       .  S
C304        C305   1.416       .  A
C305        C312   1.507       .  S
C305        C306   1.405       .  A
C306        C307   1.401       .  A
C306        H311   1.085       .  S
C307        C308   1.408       .  A
C308        C309   1.503       .  S
C309        H313   1.111       .  S
C309        H314   1.110       .  S
C309        H315   1.108       .  S
C312        H316   1.111       .  S
C312        H317   1.109       .  S
C312        H318   1.111       .  S
C319        C320   1.406       .  A
C319        C324   1.405       .  A
C319        H326   1.083       .  S
C320        C321   1.417       .  A
C321        C328   1.509       .  S
C321        C322   1.399       .  A
C322        C323   1.397       .  A
C322        H327   1.081       .  S
C323        C324   1.409       .  A
C324        C325   1.507       .  S
C325        H329   1.111       .  S
C325        H330   1.109       .  S
C325        H331   1.110       .  S
C328        H332   1.107       .  S
C328        H333   1.110       .  S
C328        H334   1.111       .  S
C335        C336   1.405       .  A
C335        C340   1.405       .  A
C335        H342   1.082       .  S
C336        C337   1.418       .  A
C337        C344   1.506       .  S
C337        C338   1.401       .  A
C338        C339   1.399       .  A
C338        H343   1.084       .  S
C339        C340   1.415       .  A
C340        C341   1.507       .  S
C341        H345   1.110       .  S
C341        H346   1.107       .  S
C341        H347   1.109       .  S
C344        H348   1.110       .  S
C344        H349   1.109       .  S
C344        H350   1.111       .  S
C351        C352   1.406       .  A
C351        C356   1.406   1_655  A
C351        H358   1.084       .  S
C352        C353   1.418       .  A
C353        C360   1.509       .  S
C353        C354   1.404   1_655  A
C354        C355   1.406       .  A
C354        H359   1.084       .  S
C355        C356   1.418       .  A
C356        C357   1.508       .  S
C357        H361   1.111       .  S
C357        H362   1.110       .  S
C357        H363   1.110       .  S
C360        H364   1.110       .  S
C360        H365   1.111       .  S
C360        H366   1.111       .  S
C367        C368   1.407       .  A
C367        C372   1.405   1_565  A
C367        H374   1.086       .  S
C368        C369   1.418       .  A
C369        C376   1.509       .  S
C369        C370   1.402   1_565  A
C370        C371   1.405       .  A
C370        H375   1.085       .  S
C371        C372   1.418       .  A
C372        C373   1.508       .  S
C373        H377   1.111       .  S
C373        H378   1.110       .  S
C373        H379   1.110       .  S
C376        H380   1.110       .  S
C376        H381   1.110       .  S
C376        H382   1.111       .  S
C383        C384   1.404       .  A
C383        C388   1.402   1_655  A
C383        H390   1.084       .  S
C384        C385   1.419       .  A
C385        C392   1.509       .  S
C385        C386   1.403   1_655  A
C386        C387   1.405       .  A
C386        H391   1.084       .  S
C387        C388   1.418       .  A
C388        C389   1.509       .  S
C389        H393   1.111       .  S
C389        H394   1.110       .  S
C389        H395   1.110       .  S
C392        H396   1.110       .  S
C392        H397   1.110       .  S
C392        H398   1.111       .  S
C399        C400   1.403       .  A
C399        C404   1.404       .  A
C399        H406   1.085       .  S
C400        C401   1.417       .  A
C401        C408   1.509       .  S
C401        C402   1.401       .  A
C402        C403   1.399       .  A
C402        H407   1.084       .  S
C403        C404   1.412       .  A
C404        C405   1.508       .  S
C405        H409   1.111       .  S
C405        H410   1.108       .  S
C405        H411   1.108       .  S
C408        H412   1.111       .  S
C408        H413   1.110       .  S
C408        H414   1.111       .  S
C415        C416   1.406       .  A
C415        C420   1.403       .  A
C415        H422   1.084       .  S
C416        C417   1.416       .  A
C417        C424   1.507       .  S
C417        C418   1.405       .  A
C418        C419   1.404       .  A
C418        H423   1.084       .  S
C419        C420   1.410       .  A
C420        C421   1.508       .  S
C421        H425   1.111       .  S
C421        H426   1.107       .  S
C421        H427   1.109       .  S
C424        H428   1.109       .  S
C424        H429   1.110       .  S
C424        H430   1.111       .  S
C431        C432   1.405       .  A
C431        C436   1.403       .  A
C431        H438   1.084       .  S
C432        C433   1.417       .  A
C433        C440   1.509       .  S
C433        C434   1.403       .  A
C434        C435   1.406       .  A
C434        H439   1.085       .  S
C435        C436   1.417       .  A
C436        C437   1.508       .  S
C437        H441   1.111       .  S
C437        H442   1.111       .  S
C437        H443   1.110       .  S
C440        H444   1.110       .  S
C440        H445   1.111       .  S
C440        H446   1.111       .  S
In447       O449   2.231       .  S
In447       O450   2.242       .  S
In447       O458   2.235       .  S
In447       O452   2.241       .  S
In447       O454   2.254       .  S
In447       O455   2.232       .  S
In447       O456   2.228       .  S
In447       O459   2.257       .  S
C448        O454   1.261       .  A
C448        O456   1.257       .  A
C448        C846   1.476       .  S
O449        C457   1.258       .  A
O450        C457   1.262       .  A
C451        O458   1.260       .  A
C451        O452   1.262       .  A
C451        C878   1.486       .  S
C453        O455   1.259       .  A
C453        O459   1.261       .  A
C453        C862   1.482       .  S
C457        C830   1.486       .  S
In460       O462   2.239       .  S
In460       O463   2.257       .  S
In460       O471   2.237       .  S
In460       O465   2.251       .  S
In460       O467   2.252       .  S
In460       O468   2.242       .  S
In460       O469   2.221       .  S
In460       O472   2.256       .  S
C461        O467   1.262       .  A
C461        O469   1.258       .  A
C461        C766   1.478       .  S
O462        C470   1.258       .  A
O463        C470   1.259       .  A
C464        O471   1.260       .  A
C464        O465   1.262       .  A
C464        C798   1.489       .  S
C466        O468   1.257       .  A
C466        O472   1.260       .  A
C466        C782   1.486       .  S
C470        C817   1.489       .  S
In473       O475   2.242       .  S
In473       O476   2.239       .  S
In473       O484   2.238       .  S
In473       O478   2.242       .  S
In473       O480   2.243       .  S
In473       O481   2.242       .  S
In473       O482   2.225       .  S
In473       O485   2.262       .  S
C474        O480   1.261       .  A
C474        O482   1.260       .  A
C474        C750   1.478       .  S
O475        C483   1.261       .  A
O476        C483   1.261       .  A
C477        O484   1.259       .  A
C477        O478   1.260       .  A
C477        C881   1.486       .  S
C479        O481   1.259       .  A
C479        O485   1.260       .  A
C479        C737   1.490       .  S
C483        C814   1.488       .  S
C486        C487   1.538       .  S
C486        C492   1.541       .  S
C486        C490   1.551       .  S
C486        C702   1.536       .  S
C487        H494   1.086       .  S
C487        C488   1.363       .  D
C488        C489   1.534       .  S
C488        C865   1.483       .  S
C489        C493   1.539       .  S
C489        C491   1.532       .  S
C489        H495   1.110       .  S
C490        H496   1.085       .  S
C490        C491   1.366       .  D
C491        C721   1.484       .  S
C492        H497   1.083       .  S
C492        C493   1.364       .  D
C493        C785   1.484       .  S
C498        C499   1.549       .  S
C498        C504   1.548       .  S
C498        C502   1.537       .  S
C498        C705   1.534       .  S
C499        H506   1.084       .  S
C499        C500   1.368       .  D
C500        C501   1.531       .  S
C500        C686   1.481       .  S
C501        C505   1.528       .  S
C501        C503   1.528       .  S
C501        H507   1.112       .  S
C502        H508   1.086       .  S
C502        C503   1.361       .  D
C503        C849   1.475       .  S
C504        H509   1.085       .  S
C504        C505   1.361       .  D
C505        C769   1.473       .  S
In510       O512   2.232       .  S
In510       O513   2.247       .  S
In510       O521   2.244       .  S
In510       O515   2.236       .  S
In510       O517   2.256       .  S
In510       O518   2.228       .  S
In510       O519   2.242       .  S
In510       O522   2.246       .  S
C511        O517   1.262       .  A
C511        O519   1.257       .  A
C511        C654   1.485       .  S
O512        C520   1.257       .  A
O513        C520   1.261       .  A
C514        O521   1.261       .  A
C514        O515   1.262       .  A
C514        C673   1.483       .  S
C516        O518   1.261       .  A
C516        O522   1.261       .  A
C516        C638   1.473       .  S
C520        C833   1.486       .  S
In523       O525   2.242       .  S
In523       O526   2.247       .  S
In523       O534   2.244       .  S
In523       O528   2.235       .  S
In523       O530   2.241       .  S
In523       O531   2.243       .  S
In523       O532   2.238       .  S
In523       O535   2.256       .  S
C524        O530   1.260       .  A
C524        O532   1.261       .  A
C524        C689   1.477       .  S
O525        C533   1.261       .  A
O526        C533   1.260       .  A
C527        O534   1.262       .  A
C527        O528   1.261       .  A
C527        C670   1.487       .  S
C529        O531   1.259       .  A
C529        O535   1.259       .  A
C529        C718   1.488       .  S
C533        C622   1.491       .  S
In536       O538   2.250       .  S
In536       O539   2.241       .  S
In536       O547   2.255       .  S
In536       O541   2.247       .  S
In536       O543   2.254       .  S
In536       O544   2.237       .  S
In536       O545   2.250       .  S
In536       O548   2.241       .  S
C537        O543   1.259       .  A
C537        O545   1.260       .  A
C537        C590   1.491       .  S
O538        C546   1.260       .  A
O539        C546   1.260       .  A
C540        O547   1.260       .  A
C540        O541   1.259       .  A
C540        C625   1.492       .  S
C542        O544   1.260       .  A
C542        O548   1.261       .  A
C542        C606   1.477       .  S
C546        C801   1.490       .  S
C549        C550   1.547       .  S
C549        C555   1.538       .  S
C549        C553   1.546       .  S
C549        C577   1.534       .  S
C550        H557   1.084       .  S
C550        C551   1.362       .  D
C551        C552   1.532       .  S
C551        C609   1.474       .  S
C552        C556   1.539       .  S
C552        C554   1.531       .  S
C552        H558   1.111       .  S
C553        H559   1.086       .  S
C553        C554   1.362       .  D
C554        C753   1.475       .  S
C555        H560   1.083       .  S
C555        C556   1.366       .  D
C556        C657   1.491       .  S
C561        C562   1.549       .  S
C561        C567   1.536       .  S
C561        C565   1.547       .  S
C561        C574   1.536       .  S
C562        H569   1.085       .  S
C562        C563   1.365       .  D
C563        C564   1.533       .  S
C563        C734   1.480       .  S
C564        C568   1.538       .  S
C564        C566   1.536       .  S
C564        H570   1.111       .  S
C565        H571   1.085       .  S
C565        C566   1.367       .  D
C566        C593   1.485       .  S
C567        H572   1.087       .  S
C567        C568   1.362       .  D
C568        C641   1.485       .  S
C573        C574   1.410       .  A
C573        H580   1.082       .  S
C574        C575   1.421       .  A
C575        C582   1.508       .  S
C576        C577   1.408       .  A
C576        H581   1.081       .  S
C577        C578   1.422       .  A
C578        C579   1.510       .  S
C579        H583   1.111       .  S
C579        H584   1.105       .  S
C579        H585   1.110       .  S
C582        H586   1.103       .  S
C582        H587   1.110       .  S
C582        H588   1.111       .  S
C589        C590   1.406       .  A
C589        C594   1.402       .  A
C589        H596   1.085       .  S
C590        C591   1.420       .  A
C591        C598   1.507       .  S
C591        C592   1.406       .  A
C592        C593   1.402       .  A
C592        H597   1.082       .  S
C593        C594   1.415       .  A
C594        C595   1.507       .  S
C595        H599   1.111       .  S
C595        H600   1.110       .  S
C595        H601   1.103       .  S
C598        H602   1.110       .  S
C598        H603   1.109       .  S
C598        H604   1.111       .  S
C605        C606   1.406       .  A
C605        C610   1.404       .  A
C605        H612   1.083       .  S
C606        C607   1.416       .  A
C607        C614   1.507       .  S
C607        C608   1.401       .  A
C608        C609   1.398       .  A
C608        H613   1.082       .  S
C609        C610   1.409       .  A
C610        C611   1.507       .  S
C611        H615   1.110       .  S
C611        H616   1.109       .  S
C611        H617   1.110       .  S
C614        H618   1.109       .  S
C614        H619   1.110       .  S
C614        H620   1.111       .  S
C621        C622   1.406       .  A
C621        C626   1.405       .  A
C621        H628   1.082       .  S
C622        C623   1.418       .  A
C623        C630   1.508       .  S
C623        C624   1.407       .  A
C624        C625   1.407       .  A
C624        H629   1.083       .  S
C625        C626   1.417       .  A
C626        C627   1.508       .  S
C627        H631   1.110       .  S
C627        H632   1.110       .  S
C627        H633   1.111       .  S
C630        H634   1.110       .  S
C630        H635   1.110       .  S
C630        H636   1.111       .  S
C637        C638   1.400       .  A
C637        C642   1.397       .  A
C637        H644   1.086       .  S
C638        C639   1.412       .  A
C639        C646   1.507       .  S
C639        C640   1.406       .  A
C640        C641   1.406       .  A
C640        H645   1.085       .  S
C641        C642   1.415       .  A
C642        C643   1.503       .  S
C643        H647   1.110       .  S
C643        H648   1.111       .  S
C643        H649   1.098       .  S
C646        H650   1.109       .  S
C646        H651   1.111       .  S
C646        H652   1.111       .  S
C653        C654   1.404       .  A
C653        C658   1.406       .  A
C653        H660   1.083       .  S
C654        C655   1.418       .  A
C655        C662   1.509       .  S
C655        C656   1.404       .  A
C656        C657   1.404       .  A
C656        H661   1.083       .  S
C657        C658   1.418       .  A
C658        C659   1.508       .  S
C659        H663   1.110       .  S
C659        H664   1.106       .  S
C659        H665   1.107       .  S
C662        H666   1.111       .  S
C662        H667   1.110       .  S
C662        H668   1.111       .  S
C669        C670   1.406       .  A
C669        C674   1.404   1_545  A
C669        H676   1.086       .  S
C670        C671   1.418       .  A
C671        C678   1.508       .  S
C671        C672   1.403   1_545  A
C672        C673   1.403       .  A
C672        H677   1.086       .  S
C673        C674   1.416       .  A
C674        C675   1.509       .  S
C675        H679   1.111       .  S
C675        H680   1.110       .  S
C675        H681   1.111       .  S
C678        H682   1.110       .  S
C678        H683   1.110       .  S
C678        H684   1.111       .  S
C685        C686   1.403       .  A
C685        C690   1.400       .  A
C685        H692   1.081       .  S
C686        C687   1.412       .  A
C687        C694   1.507       .  S
C687        C688   1.405       .  A
C688        C689   1.405       .  A
C688        H693   1.084       .  S
C689        C690   1.414       .  A
C690        C691   1.509       .  S
C691        H695   1.111       .  S
C691        H696   1.111       .  S
C691        H697   1.110       .  S
C694        H698   1.107       .  S
C694        H699   1.109       .  S
C694        H700   1.111       .  S
C701        C702   1.409       .  A
C701        H708   1.080       .  S
C702        C703   1.423       .  A
C703        C710   1.510       .  S
C704        C705   1.408       .  A
C704        H709   1.082       .  S
C705        C706   1.422       .  A
C706        C707   1.510       .  S
C707        H711   1.111       .  S
C707        H712   1.105       .  S
C707        H713   1.110       .  S
C710        H714   1.104       .  S
C710        H715   1.110       .  S
C710        H716   1.111       .  S
C717        C718   1.406       .  A
C717        C722   1.402       .  A
C717        H724   1.083       .  S
C718        C719   1.419       .  A
C719        C726   1.507       .  S
C719        C720   1.407       .  A
C720        C721   1.402       .  A
C720        H725   1.084       .  S
C721        C722   1.411       .  A
C722        C723   1.504       .  S
C723        H727   1.111       .  S
C723        H728   1.108       .  S
C723        H729   1.109       .  S
C726        H730   1.110       .  S
C726        H731   1.110       .  S
C726        H732   1.111       .  S
C733        C734   1.402       .  A
C733        C738   1.407       .  A
C733        H740   1.084       .  S
C734        C735   1.408       .  A
C735        C742   1.506       .  S
C735        C736   1.402       .  A
C736        C737   1.407       .  A
C736        H741   1.084       .  S
C737        C738   1.420       .  A
C738        C739   1.507       .  S
C739        H743   1.111       .  S
C739        H744   1.110       .  S
C739        H745   1.110       .  S
C742        H746   1.108       .  S
C742        H747   1.110       .  S
C742        H748   1.111       .  S
C749        C750   1.404       .  A
C749        C754   1.399       .  A
C749        H756   1.082       .  S
C750        C751   1.416       .  A
C751        C758   1.507       .  S
C751        C752   1.405       .  A
C752        C753   1.401       .  A
C752        H757   1.085       .  S
C753        C754   1.408       .  A
C754        C755   1.503       .  S
C755        H759   1.111       .  S
C755        H760   1.110       .  S
C755        H761   1.108       .  S
C758        H762   1.111       .  S
C758        H763   1.109       .  S
C758        H764   1.111       .  S
C765        C766   1.406       .  A
C765        C770   1.405       .  A
C765        H772   1.083       .  S
C766        C767   1.417       .  A
C767        C774   1.509       .  S
C767        C768   1.399       .  A
C768        C769   1.397       .  A
C768        H773   1.081       .  S
C769        C770   1.409       .  A
C770        C771   1.507       .  S
C771        H775   1.111       .  S
C771        H776   1.109       .  S
C771        H777   1.110       .  S
C774        H778   1.107       .  S
C774        H779   1.110       .  S
C774        H780   1.111       .  S
C781        C782   1.405       .  A
C781        C786   1.405       .  A
C781        H788   1.082       .  S
C782        C783   1.418       .  A
C783        C790   1.506       .  S
C783        C784   1.401       .  A
C784        C785   1.399       .  A
C784        H789   1.084       .  S
C785        C786   1.415       .  A
C786        C787   1.507       .  S
C787        H791   1.110       .  S
C787        H792   1.107       .  S
C787        H793   1.109       .  S
C790        H794   1.110       .  S
C790        H795   1.109       .  S
C790        H796   1.111       .  S
C797        C798   1.406       .  A
C797        C802   1.406   1_655  A
C797        H804   1.084       .  S
C798        C799   1.418       .  A
C799        C806   1.509       .  S
C799        C800   1.404   1_655  A
C800        C801   1.406       .  A
C800        H805   1.084       .  S
C801        C802   1.418       .  A
C802        C803   1.508       .  S
C803        H807   1.111       .  S
C803        H808   1.110       .  S
C803        H809   1.110       .  S
C806        H810   1.110       .  S
C806        H811   1.111       .  S
C806        H812   1.111       .  S
C813        C814   1.407       .  A
C813        C818   1.405   1_565  A
C813        H820   1.086       .  S
C814        C815   1.418       .  A
C815        C822   1.509       .  S
C815        C816   1.402   1_565  A
C816        C817   1.405       .  A
C816        H821   1.085       .  S
C817        C818   1.418       .  A
C818        C819   1.508       .  S
C819        H823   1.111       .  S
C819        H824   1.110       .  S
C819        H825   1.110       .  S
C822        H826   1.110       .  S
C822        H827   1.110       .  S
C822        H828   1.111       .  S
C829        C830   1.404       .  A
C829        C834   1.402   1_655  A
C829        H836   1.084       .  S
C830        C831   1.419       .  A
C831        C838   1.509       .  S
C831        C832   1.403   1_655  A
C832        C833   1.405       .  A
C832        H837   1.084       .  S
C833        C834   1.418       .  A
C834        C835   1.509       .  S
C835        H839   1.111       .  S
C835        H840   1.110       .  S
C835        H841   1.110       .  S
C838        H842   1.110       .  S
C838        H843   1.110       .  S
C838        H844   1.111       .  S
C845        C846   1.403       .  A
C845        C850   1.404       .  A
C845        H852   1.085       .  S
C846        C847   1.417       .  A
C847        C854   1.509       .  S
C847        C848   1.401       .  A
C848        C849   1.399       .  A
C848        H853   1.084       .  S
C849        C850   1.412       .  A
C850        C851   1.508       .  S
C851        H855   1.111       .  S
C851        H856   1.108       .  S
C851        H857   1.108       .  S
C854        H858   1.111       .  S
C854        H859   1.110       .  S
C854        H860   1.111       .  S
C861        C862   1.406       .  A
C861        C866   1.403       .  A
C861        H868   1.084       .  S
C862        C863   1.416       .  A
C863        C870   1.507       .  S
C863        C864   1.405       .  A
C864        C865   1.404       .  A
C864        H869   1.084       .  S
C865        C866   1.410       .  A
C866        C867   1.508       .  S
C867        H871   1.111       .  S
C867        H872   1.107       .  S
C867        H873   1.109       .  S
C870        H874   1.109       .  S
C870        H875   1.110       .  S
C870        H876   1.111       .  S
C877        C878   1.405       .  A
C877        C882   1.403       .  A
C877        H884   1.084       .  S
C878        C879   1.417       .  A
C879        C886   1.509       .  S
C879        C880   1.403       .  A
C880        C881   1.406       .  A
C880        H885   1.085       .  S
C881        C882   1.417       .  A
C882        C883   1.508       .  S
C883        H887   1.111       .  S
C883        H888   1.111       .  S
C883        H889   1.110       .  S
C886        H890   1.110       .  S
C886        H891   1.111       .  S
C886        H892   1.111       .  S
