geometry optimzed in LAMMPS
_audit_creation_date              2020-11-30 
_audit_creation_method            'lammps2cif' 
_symmetry_space_group_name_H-M    'P1' 
_symmetry_Int_Tables_number       1 
_symmetry_cell_setting            triclinic 
loop_ 
_symmetry_equiv_pos_as_xyz 
  x,y,z 
_cell_length_a                    67.32723469 
_cell_length_b                    67.3270044613517 
_cell_length_c                    38.66829556082485 
_cell_angle_alpha                 89.63501860899127 
_cell_angle_beta                  90.1262964275919 
_cell_angle_gamma                 90.02554464764312 
loop_ 
_atom_site_label 
_atom_site_type_symbol 
_atom_site_fract_x 
_atom_site_fract_y 
_atom_site_fract_z 
_atom_site_charge 
N1          N  0.27544564  0.33526601  0.31677247    -0.26300
N2          N  0.28700163  0.32280697  0.29984485    -0.34200
C3          C  0.29726634  0.31170631  0.32264329     0.02000
C4          C  0.29188666  0.31745452  0.35550270     0.08100
C5          C  0.27802279  0.33239100  0.35091237    -0.05000
H6          H  0.30793278  0.30040657  0.31571860     0.08700
H7          H  0.27053645  0.34073714  0.37083166     0.09900
Cu8        Cu  0.28865500  0.32151043  0.24677489     0.44200
Cu9        Cu  0.25722441  0.35601382  0.29279647     0.42000
Cu10       Cu  0.25747558  0.35621170  0.19955950     0.43900
N11         N  0.28745807  0.32316805  0.19365538    -0.33700
N12         N  0.27596793  0.33566722  0.17631470    -0.28000
C13         C  0.27874589  0.33293985  0.14227444    -0.04100
C14         C  0.29267109  0.31805904  0.13817925     0.08200
C15         C  0.29788855  0.31219379  0.17122250     0.02000
H16         H  0.27129776  0.34130006  0.12208767     0.09600
H17         H  0.30848716  0.30083761  0.17851795     0.08700
N18         N  0.24125099  0.37613470  0.22877002    -0.35100
N19         N  0.24116570  0.37606133  0.26297812    -0.27300
C20         C  0.22981900  0.39115351  0.27413150    -0.02600
C21         C  0.22247021  0.40109623  0.24554675     0.06000
C22         C  0.22996247  0.39127900  0.21721479     0.04100
H23         H  0.22740807  0.39479395  0.30101802     0.09200
H24         H  0.22768989  0.39503821  0.19024148     0.08100
N25         N  0.31797671  0.29350966  0.06742019    -0.26300
N26         N  0.30559103  0.30514700  0.05012985    -0.34200
C27         C  0.29467982  0.31561231  0.07260251     0.02000
C28         C  0.30045978  0.31027006  0.10562226     0.08100
C29         C  0.31523153  0.29623194  0.10147587    -0.05000
H30         H  0.28341580  0.32631605  0.06534545     0.08700
H31         H  0.32350318  0.28866780  0.12163651     0.09900
Cu32       Cu  0.30387401  0.30646402  0.49702799     0.44200
Cu33       Cu  0.33840847  0.27489595  0.04410423     0.42000
Cu34       Cu  0.33812452  0.27485473  0.45091495     0.43900
N35         N  0.30508308  0.30481706  0.44395767    -0.33700
N36         N  0.31744958  0.29317468  0.42700133    -0.28000
C37         C  0.31453741  0.29573286  0.39287149    -0.04100
C38         C  0.29967304  0.30967590  0.38831259     0.08200
C39         C  0.29400552  0.31512357  0.42118463     0.02000
H40         H  0.32280747  0.28817432  0.37293345     0.09600
H41         H  0.28277034  0.32585447  0.42813094     0.08700
N42         N  0.35816456  0.25867931  0.48052289    -0.35100
N43         N  0.35830009  0.25869117  0.01473175    -0.27300
C44         C  0.37342326  0.24732009  0.02611614    -0.02600
C45         C  0.38316651  0.23986321  0.49766115     0.06000
C46         C  0.37321647  0.24733003  0.46919656     0.04100
H47         H  0.37718931  0.24494025  0.05304853     0.09200
H48         H  0.37682013  0.24498701  0.44226710     0.08100
N49         N  0.16139302  0.57827016  0.24352810    -0.26300
N50         N  0.14435132  0.58804752  0.24294554    -0.34200
C51         C  0.14812610  0.60768162  0.24210979     0.02000
C52         C  0.16846506  0.61025432  0.24215686     0.08100
C53         C  0.17646259  0.59139960  0.24306641    -0.05000
H54         H  0.13690132  0.61917148  0.24139079     0.08700
H55         H  0.19204547  0.58747971  0.24327583     0.09900
Cu56       Cu  0.11677161  0.57421998  0.24276033     0.44200
Cu57       Cu  0.16343201  0.54755079  0.24457131     0.42000
Cu58       Cu  0.11686531  0.52038289  0.24291423     0.43900
N59         N  0.09112867  0.55707672  0.24149627    -0.33700
N60         N  0.09115317  0.53742094  0.24147271    -0.28000
C61         C  0.07225926  0.53088237  0.24062396    -0.04100
C62         C  0.05986692  0.54720944  0.24009535     0.08200
C63         C  0.07222341  0.56356590  0.24066398     0.02000
H64         H  0.06790603  0.51541121  0.24056016     0.09600
H65         H  0.06784015  0.57902497  0.24061292     0.08700
N66         N  0.14459291  0.50687427  0.24435123    -0.35100
N67         N  0.16154928  0.51681681  0.24495923    -0.27300
C68         C  0.17672888  0.50383145  0.24555625    -0.02600
C69         C  0.16889981  0.48490212  0.24531992     0.06000
C70         C  0.14854386  0.48727472  0.24455578     0.04100
H71         H  0.19227521  0.50790106  0.24598048     0.09200
H72         H  0.13742723  0.47567131  0.24403757     0.08100
N73         N  0.27389020  0.76092631  0.16954674    -0.26300
N74         N  0.28557302  0.77325814  0.18660664    -0.34200
C75         C  0.29594602  0.78429047  0.16391999     0.02000
C76         C  0.29050997  0.77862191  0.13100005     0.08100
C77         C  0.27650212  0.76380623  0.13543803    -0.05000
H78         H  0.30673519  0.79547588  0.17096088     0.08700
H79         H  0.26894053  0.75554088  0.11543666     0.09900
Cu80       Cu  0.28728891  0.77442794  0.23970086     0.44200
Cu81       Cu  0.25552144  0.74025405  0.19326882     0.42000
Cu82       Cu  0.25638623  0.73938314  0.28652288     0.43900
N83         N  0.28618297  0.77262652  0.29281325    -0.33700
N84         N  0.27478626  0.76001902  0.31004130    -0.28000
C85         C  0.27762459  0.76268800  0.34411513    -0.04100
C86         C  0.29150651  0.77762857  0.34834101     0.08200
C87         C  0.29661924  0.78359589  0.31533989     0.02000
H88         H  0.27027900  0.75422376  0.36423717     0.09600
H89         H  0.30716428  0.79501271  0.30813448     0.08700
N90         N  0.24010569  0.71953637  0.25701116    -0.35100
N91         N  0.23975297  0.71988736  0.22280689    -0.27300
C92         C  0.22843094  0.70479034  0.21144892    -0.02600
C93         C  0.22137489  0.69455100  0.23990036     0.06000
C94         C  0.22901831  0.70420260  0.26835338     0.04100
H95         H  0.22584928  0.70134492  0.18451031     0.09200
H96         H  0.22697783  0.70020580  0.29526596     0.08100
N97         N  0.31614705  0.80287106  0.05973046    -0.26300
N98         N  0.30389530  0.79110688  0.04266694    -0.34200
C99         C  0.29280735  0.78079611  0.06534387     0.02000
C100        C  0.29835735  0.78636161  0.09826331     0.08100
C101        C  0.31316312  0.80038021  0.09383394    -0.05000
H102        H  0.28165571  0.76997127  0.05830286     0.08700
H103        H  0.32134693  0.80803293  0.11384177     0.09900
Cu104      Cu  0.30291222  0.78926766  0.48958220     0.44200
Cu105      Cu  0.33682918  0.82116366  0.03595942     0.42000
Cu106      Cu  0.33788327  0.82031168  0.44269281     0.43900
N107        N  0.30464520  0.79046193  0.43647421    -0.33700
N108        N  0.31720267  0.80190357  0.41923626    -0.28000
C109        C  0.31439730  0.79918335  0.38516721    -0.04100
C110        C  0.29941349  0.78534557  0.38095291     0.08200
C111        C  0.29357136  0.78012157  0.41395670     0.02000
H112        H  0.32276962  0.80661238  0.36503750     0.09600
H113        H  0.28213733  0.76959965  0.42117015     0.08700
N114        N  0.35775514  0.83650215  0.47239416    -0.35100
N115        N  0.35729583  0.83682484  0.00658565    -0.27300
C116        C  0.37245249  0.84798727  0.01818757    -0.02600
C117        C  0.38285307  0.85498814  0.48993587     0.06000
C118        C  0.37322163  0.84748062  0.46130666     0.04100
H119        H  0.37585894  0.85046346  0.04518470     0.09200
H120        H  0.37733571  0.84950910  0.43447478     0.08100
N121        N  0.49912997  0.91497988  0.49851249    -0.26300
N122        N  0.48919513  0.93192853  0.49890478    -0.34200
C123        C  0.46960239  0.92798691  0.49767915     0.02000
C124        C  0.46722649  0.90763909  0.49646199     0.08100
C125        C  0.48615083  0.89980843  0.49702660    -0.05000
H126        H  0.45800761  0.93910773  0.49749930     0.08700
H127        H  0.49022296  0.88427455  0.49623000     0.09900
Cu128      Cu  0.50278162  0.95961496  0.50046415     0.44200
Cu129      Cu  0.52985606  0.91318181  0.49938866     0.42000
Cu130      Cu  0.55672265  0.95977028  0.50044143     0.43900
N131        N  0.51986058  0.98531777  0.50089187    -0.33700
N132        N  0.53951884  0.98537561  0.50083683    -0.28000
C133        C  0.54598304  0.00429994  0.50072502    -0.04100
C134        C  0.52961057  0.01662708  0.50072147     0.08200
C135        C  0.51330101  0.00420324  0.50081585     0.02000
H136        H  0.56143613  0.00871513  0.50047089     0.09600
H137        H  0.49782511  0.00852670  0.50063256     0.08700
N138        N  0.57043768  0.93214721  0.49959038    -0.35100
N139        N  0.56057591  0.91514566  0.49926002    -0.27300
C140        C  0.57362368  0.90003253  0.49833379    -0.02600
C141        C  0.59251647  0.90795412  0.49807079     0.06000
C142        C  0.59005261  0.92829754  0.49888163     0.04100
H143        H  0.56961951  0.88447438  0.49766809     0.09200
H144        H  0.60160181  0.93947578  0.49875130     0.08100
N145        N  0.89775289  0.51563429  0.23981571    -0.26300
N146        N  0.91479169  0.50585078  0.23930320    -0.34200
C147        C  0.91101091  0.48621407  0.23977998     0.02000
C148        C  0.89067740  0.48365132  0.24062766     0.08100
C149        C  0.88268804  0.50250799  0.24062923    -0.05000
H150        H  0.92223051  0.47471512  0.23975806     0.08700
H151        H  0.86711461  0.50643333  0.24139983     0.09900
Cu152      Cu  0.94239569  0.51964058  0.23865332     0.44200
Cu153      Cu  0.89562115  0.54635040  0.23996780     0.42000
Cu154      Cu  0.94202161  0.57350756  0.24005226     0.43900
N155        N  0.96795415  0.53693571  0.23896768    -0.33700
N156        N  0.96781923  0.55658743  0.23954524    -0.28000
C157        C  0.98668056  0.56323628  0.23976586    -0.04100
C158        C  0.99916912  0.54698812  0.23929448     0.08200
C159        C  0.98690270  0.53056233  0.23880546     0.02000
H160        H  0.99094325  0.57872864  0.24026200     0.09600
H161        H  0.99137635  0.51513245  0.23841434     0.08700
N162        N  0.91430265  0.58705014  0.24039134    -0.35100
N163        N  0.89735576  0.57709171  0.24034519    -0.27300
C164        C  0.88215881  0.59005984  0.24073816    -0.02600
C165        C  0.88997241  0.60900122  0.24104130     0.06000
C166        C  0.91033594  0.60664366  0.24081115     0.04100
H167        H  0.86661569  0.58597239  0.24088623     0.09200
H168        H  0.92144882  0.61825448  0.24102255     0.08100
N169        N  0.78435310  0.75946634  0.17314674    -0.26300
N170        N  0.77258294  0.77170171  0.19011742    -0.34200
C171        C  0.76227087  0.78278448  0.16735521     0.02000
C172        C  0.76783365  0.77724484  0.13447365     0.08100
C173        C  0.78185479  0.76245141  0.13901695    -0.05000
H174        H  0.75144644  0.79392559  0.17431599     0.08700
H175        H  0.78951820  0.75428908  0.11906982     0.09900
Cu176      Cu  0.77075806  0.77271677  0.24320094     0.43800
Cu177      Cu  0.80270917  0.73883460  0.19708544     0.42000
Cu178      Cu  0.80174969  0.73779852  0.29040890     0.43900
N179        N  0.77197379  0.77106373  0.29633221    -0.33700
N180        N  0.78339507  0.75850848  0.31369546    -0.28000
C181        C  0.78067594  0.76133164  0.34773861    -0.04100
C182        C  0.76685416  0.77632237  0.35180494     0.08200
C183        C  0.76164775  0.78215562  0.31873969     0.02000
H184        H  0.78807860  0.75295296  0.36795297     0.09600
H185        H  0.75112516  0.79357551  0.31141048     0.08700
N186        N  0.81808108  0.71802960  0.26093871    -0.35100
N187        N  0.81845830  0.71847031  0.22673808    -0.27300
C188        C  0.82978460  0.70341856  0.21536577    -0.02600
C189        C  0.83682415  0.69310336  0.24378325     0.06000
C190        C  0.82916664  0.70267051  0.27225860     0.04100
H191        H  0.83236893  0.70004328  0.18842106     0.09200
H192        H  0.83118495  0.69859349  0.29915528     0.08100
N193        N  0.74250855  0.80182291  0.06302447    -0.26300
N194        N  0.75467798  0.78999337  0.04603712    -0.34200
C195        C  0.76564784  0.77955485  0.06878787     0.02000
C196        C  0.76010065  0.78510076  0.10167678     0.08100
C197        C  0.74542216  0.79924225  0.09714905    -0.05000
H198        H  0.77670903  0.76865058  0.06181719     0.08700
H199        H  0.73728139  0.80692591  0.11710298     0.09900
Cu200      Cu  0.75572139  0.78827073  0.49294553     0.44200
Cu201      Cu  0.72203692  0.82033868  0.03910257     0.42000
Cu202      Cu  0.72090701  0.81945395  0.44578348     0.43900
N203        N  0.75397269  0.78945028  0.43981774    -0.33700
N204        N  0.74145706  0.80092308  0.42247554    -0.28000
C205        C  0.74419457  0.79812514  0.38842941    -0.04100
C206        C  0.75908762  0.78419998  0.38434047     0.08200
C207        C  0.76495131  0.77901366  0.41739333     0.02000
H208        H  0.73582340  0.80554528  0.36823199     0.09600
H209        H  0.77631356  0.76842631  0.42470454     0.08700
N210        N  0.70129422  0.83591068  0.47537871    -0.35100
N211        N  0.70176660  0.83623852  0.00957081    -0.27300
C212        C  0.68680751  0.84764545  0.02107193    -0.02600
C213        C  0.67651834  0.85479357  0.49275457     0.06000
C214        C  0.68598717  0.84710309  0.46419168     0.04100
H215        H  0.68348312  0.85021473  0.04804629     0.09200
H216        H  0.68187214  0.84916315  0.43733659     0.08100
N217        N  0.56023848  0.17886759  0.99229675    -0.26300
N218        N  0.57010125  0.16187845  0.99328510    -0.34200
C219        C  0.58970839  0.16575860  0.99431419     0.02000
C220        C  0.59217317  0.18610960  0.99396374     0.08100
C221        C  0.57328495  0.19400715  0.99268253    -0.05000
H222        H  0.60123192  0.15461111  0.49546055     0.08700
H223        H  0.56928278  0.20956905  0.99229397     0.09900
Cu224      Cu  0.55640726  0.13423432  0.49400675     0.44200
Cu225      Cu  0.52951277  0.18077032  0.99131096     0.42000
Cu226      Cu  0.50252125  0.13421962  0.49472917     0.43900
N227        N  0.53930183  0.10857711  0.49595880    -0.33700
N228        N  0.51964614  0.10856613  0.49627865    -0.28000
C229        C  0.51314621  0.08966637  0.49768121    -0.04100
C230        C  0.52949620  0.07730871  0.49826433     0.08200
C231        C  0.54582737  0.08968860  0.49714637     0.02000
H232        H  0.49768461  0.08528722  0.49815131     0.09600
H233        H  0.56129414  0.08533282  0.49712752     0.08700
N234        N  0.48889703  0.16189320  0.99363872    -0.35100
N235        N  0.49878835  0.17886834  0.99233974    -0.27300
C236        C  0.48577430  0.19402408  0.99250766    -0.02600
C237        C  0.46687480  0.18615933  0.99397286     0.06000
C238        C  0.46929913  0.16580437  0.99465484     0.04100
H239        H  0.48980843  0.20957939  0.99188829     0.09200
H240        H  0.45771846  0.15465003  0.49604036     0.08100
N241        N  0.74253970  0.29183000  0.42737571    -0.26300
N242        N  0.75519615  0.30316716  0.44443148    -0.34200
C243        C  0.76628275  0.31347381  0.42174371     0.02000
C244        C  0.76032596  0.30833253  0.38882706     0.08100
C245        C  0.74527978  0.29457460  0.39326735    -0.05000
H246        H  0.77774782  0.32396884  0.42877875     0.08700
H247        H  0.73677794  0.28726406  0.37326886     0.09900
Cu248      Cu  0.75680818  0.30437170  0.49752295     0.44200
Cu249      Cu  0.72172222  0.27366724  0.45113168     0.42000
Cu250      Cu  0.72207852  0.27298210  0.04431413     0.43900
N251        N  0.75541900  0.30269241  0.05061745    -0.33700
N252        N  0.74290173  0.29118163  0.06780355    -0.28000
C253        C  0.74573769  0.29380655  0.10188525    -0.04100
C254        C  0.76071009  0.30764466  0.10615869     0.08200
C255        C  0.76651533  0.31296619  0.07318371     0.02000
H256        H  0.73734814  0.28636302  0.12197696     0.09600
H257        H  0.77786025  0.32359480  0.06601818     0.08700
N258        N  0.70175247  0.25728578  0.01479980    -0.35100
N259        N  0.70159908  0.25759514  0.48059026    -0.27300
C260        C  0.68629563  0.24656453  0.46917258    -0.02600
C261        C  0.67640128  0.23903870  0.49757840     0.06000
C262        C  0.68651174  0.24606869  0.02609242     0.04100
H263        H  0.68249289  0.24447552  0.44223073     0.09200
H264        H  0.68286846  0.24354797  0.05301124     0.08100
N265        N  0.78517332  0.33310999  0.17702295    -0.26300
N266        N  0.77338473  0.32089323  0.19428721    -0.34200
C267        C  0.76297837  0.30987611  0.17178911     0.02000
C268        C  0.76851351  0.31543119  0.13877834     0.08100
C269        C  0.78261072  0.33016519  0.14296722    -0.05000
H270        H  0.75212493  0.29875714  0.17901344     0.08700
H271        H  0.79027143  0.33832728  0.12282760     0.09900
Cu272      Cu  0.77170092  0.31979964  0.24739412     0.44200
Cu273      Cu  0.80362023  0.35369047  0.20043843     0.42000
Cu274      Cu  0.80310508  0.35445700  0.29369708     0.43900
N275        N  0.77309542  0.32140055  0.30047240    -0.33700
N276        N  0.78466305  0.33386005  0.31749367    -0.28000
C277        C  0.78201092  0.33104319  0.35161216    -0.04100
C278        C  0.76808510  0.31615209  0.35608544     0.08200
C279        C  0.76274092  0.31037209  0.32318590     0.02000
H280        H  0.78952546  0.33936479  0.37159595     0.09600
H281        H  0.75210159  0.29903814  0.31617471     0.08700
N282        N  0.81934904  0.37427482  0.26377640    -0.35100
N283        N  0.81953740  0.37395501  0.22957744    -0.27300
C284        C  0.83078991  0.38906166  0.21784487    -0.02600
C285        C  0.83798066  0.39927960  0.24602904     0.06000
C286        C  0.83048939  0.38960426  0.27474246     0.04100
H287        H  0.83320858  0.39254871  0.19081971     0.09200
H288        H  0.83263299  0.39360250  0.30155796     0.08100
C289        C  0.61058525  0.19691651  0.99516407    -0.17500
C290        C  0.62585781  0.20624140  0.49608680     0.06500
C291        C  0.64362700  0.21739910  0.49695983     0.08400
C292        C  0.65866351  0.22713953  0.49742880    -0.18400
C293        C  0.87908597  0.62737088  0.24176518    -0.17500
C294        C  0.86972461  0.64263848  0.24242816     0.06500
C295        C  0.85852198  0.66037678  0.24316273     0.08400
C296        C  0.84875544  0.67539096  0.24361500    -0.18400
C297        C  0.87996199  0.46518490  0.24195702    -0.17500
C298        C  0.87069195  0.44986374  0.24317606     0.06500
C299        C  0.85956663  0.43208099  0.24453523     0.08400
C300        C  0.84985538  0.41703021  0.24544065    -0.18400
C301        C  0.52955484  0.03800589  0.50010345    -0.12300
C302        C  0.52951656  0.05593474  0.49937761    -0.13900
C303        C  0.61092378  0.89717099  0.49661856    -0.17500
C304        C  0.62618912  0.88783649  0.49534396     0.06500
C305        C  0.64389536  0.87661640  0.49397949     0.08400
C306        C  0.65886861  0.86680400  0.49313862    -0.18400
C307        C  0.40068428  0.86674629  0.49043741    -0.17500
C308        C  0.41577714  0.87638789  0.49141792     0.06500
C309        C  0.43357154  0.88748160  0.49301339     0.08400
C310        C  0.44885821  0.89678755  0.49456530    -0.18400
C311        C  0.03848496  0.54718294  0.23963677    -0.12300
C312        C  0.02055196  0.54712703  0.23942612    -0.13900
C313        C  0.17918243  0.62873228  0.24126656    -0.17500
C314        C  0.18846263  0.64406068  0.24063553     0.06500
C315        C  0.19963465  0.66183231  0.24011813     0.08400
C316        C  0.20941238  0.67685052  0.23990167    -0.18400
C317        C  0.44850364  0.19701755  0.99518989    -0.17500
C318        C  0.43325494  0.20642160  0.49616605     0.06500
C319        C  0.41561959  0.21777163  0.49710431     0.08400
C320        C  0.40072114  0.22770851  0.49758147    -0.18400
C321        C  0.21038854  0.41869573  0.24536206    -0.17500
C322        C  0.20050621  0.43363109  0.24533016     0.06500
C323        C  0.18919763  0.45129851  0.24537146     0.08400
C324        C  0.17978368  0.46653426  0.24539349    -0.18400
N325        N  0.27549717  0.33531728  0.81677351    -0.26300
N326        N  0.28705066  0.32285615  0.79984545    -0.34200
C327        C  0.29731992  0.31175943  0.82264343     0.02000
C328        C  0.29194565  0.31751226  0.85550299     0.08100
C329        C  0.27808042  0.33244755  0.85091332    -0.05000
H330        H  0.30798408  0.30045759  0.81571821     0.08700
H331        H  0.27059590  0.34079512  0.87083276     0.09900
Cu332      Cu  0.28868990  0.32154769  0.74677526     0.44200
Cu333      Cu  0.25726774  0.35605764  0.79279726     0.42000
Cu334      Cu  0.25748773  0.35622848  0.69955932     0.43900
N335        N  0.28747335  0.32318765  0.69365575    -0.33700
N336        N  0.27597477  0.33567896  0.67631492    -0.28000
C337        C  0.27874018  0.33293982  0.64227448    -0.04100
C338        C  0.29266590  0.31805947  0.63817940     0.08200
C339        C  0.29789680  0.31220683  0.67122285     0.02000
H340        H  0.27128305  0.34129162  0.62208725     0.09600
H341        H  0.30849956  0.30085458  0.67851840     0.08700
N342        N  0.24127076  0.37615813  0.72876917    -0.35100
N343        N  0.24119704  0.37609472  0.76297736    -0.27300
C344        C  0.22985211  0.39118867  0.77412904    -0.02600
C345        C  0.22249233  0.40112210  0.74554316     0.06000
C346        C  0.22997633  0.39129761  0.71721220     0.04100
H347        H  0.22744960  0.39483649  0.80101476     0.09200
H348        H  0.22769399  0.39504855  0.69023798     0.08100
N349        N  0.31794962  0.29348832  0.56741999    -0.26300
N350        N  0.30555633  0.30511777  0.55013012    -0.34200
C351        C  0.29465131  0.31558941  0.57260299     0.02000
C352        C  0.30044337  0.31025955  0.60562232     0.08100
C353        C  0.31521567  0.29622208  0.60147544    -0.05000
H354        H  0.28338385  0.32628966  0.56534630     0.08700
H355        H  0.32349573  0.28866659  0.62163538     0.09900
Cu356      Cu  0.30392422  0.30650975  0.99702759     0.44200
Cu357      Cu  0.33837767  0.27487084  0.54410375     0.42000
Cu358      Cu  0.33817681  0.27490358  0.95091399     0.43900
N359        N  0.30514100  0.30487203  0.94395713    -0.33700
N360        N  0.31750776  0.29323020  0.92700026    -0.28000
C361        C  0.31459743  0.29579092  0.89287050    -0.04100
C362        C  0.29973399  0.30973503  0.88831238     0.08200
C363        C  0.29406523  0.31518085  0.92118466     0.02000
H364        H  0.32286669  0.28823185  0.87293207     0.09600
H365        H  0.28282871  0.32591016  0.92813159     0.08700
N366        N  0.35820802  0.25871834  0.98052398    -0.35100
N367        N  0.35826455  0.25866095  0.51473049    -0.27300
C368        C  0.37339231  0.24729542  0.52611314    -0.02600
C369        C  0.38320280  0.23989355  0.99766518     0.06000
C370        C  0.37326064  0.24736943  0.96919941     0.04100
H371        H  0.37716523  0.24492348  0.55304462     0.09200
H372        H  0.37686998  0.24503242  0.94227058     0.08100
N373        N  0.16138954  0.57828688  0.74352481    -0.26300
N374        N  0.14434641  0.58806175  0.74294347    -0.34200
C375        C  0.14811827  0.60769641  0.74210888     0.02000
C376        C  0.16845683  0.61027212  0.74215557     0.08100
C377        C  0.17645720  0.59141855  0.74306355    -0.05000
H378        H  0.13689178  0.61918462  0.74139097     0.08700
H379        H  0.19204060  0.58750100  0.74327217     0.09900
Cu380      Cu  0.11676876  0.57423021  0.74275855     0.44200
Cu381      Cu  0.16343286  0.54756773  0.74456592     0.42000
Cu382      Cu  0.11686947  0.52039326  0.74290985     0.43900
N383        N  0.09112807  0.55708361  0.74149481    -0.33700
N384        N  0.09115500  0.53742784  0.74147037    -0.28000
C385        C  0.07226187  0.53088695  0.74062216    -0.04100
C386        C  0.05986753  0.54721253  0.74009492     0.08200
C387        C  0.07222204  0.56357045  0.74066373     0.02000
H388        H  0.06791052  0.51541523  0.74055783     0.09600
H389        H  0.06783688  0.57902901  0.74061371     0.08700
N390        N  0.14459909  0.50688861  0.74434444    -0.35100
N391        N  0.16155412  0.51683346  0.74495214    -0.27300
C392        C  0.17673550  0.50385017  0.74554781    -0.02600
C393        C  0.16890903  0.48491978  0.74531095     0.06000
C394        C  0.14855273  0.48728959  0.74454793     0.04100
H395        H  0.19228127  0.50792189  0.74597173     0.09200
H396        H  0.13743770  0.47568467  0.74403007     0.08100
N397        N  0.27387097  0.76094976  0.66954484    -0.26300
N398        N  0.28554810  0.77328695  0.68660471    -0.34200
C399        C  0.29592549  0.78431514  0.66391801     0.02000
C400        C  0.29049822  0.77863818  0.63099813     0.08100
C401        C  0.27649096  0.76382199  0.63543622    -0.05000
H402        H  0.30671228  0.79550282  0.67095889     0.08700
H403        H  0.26893577  0.75555057  0.61543520     0.09900
Cu404      Cu  0.28725266  0.77446685  0.73969931     0.44200
Cu405      Cu  0.25550017  0.74027944  0.69326705     0.42000
Cu406      Cu  0.25634879  0.73942174  0.78652105     0.43900
N407        N  0.28614142  0.77266914  0.79281181    -0.33700
N408        N  0.27474489  0.76006121  0.81003937    -0.28000
C409        C  0.27758235  0.76273056  0.84411331    -0.04100
C410        C  0.29146353  0.77767173  0.84833985     0.08200
C411        C  0.29657662  0.78363915  0.81533896     0.02000
H412        H  0.27023769  0.75426522  0.86423501     0.09600
H413        H  0.30712255  0.79505532  0.80813400     0.08700
N414        N  0.24007526  0.71956905  0.75700959    -0.35100
N415        N  0.23972869  0.71991511  0.72280506    -0.27300
C416        C  0.22841091  0.70481484  0.71144740    -0.02600
C417        C  0.22135121  0.69457849  0.73989931     0.06000
C418        C  0.22898805  0.70423527  0.76835231     0.04100
H419        H  0.22583486  0.70136506  0.68450896     0.09200
H420        H  0.22694360  0.70024176  0.79526541     0.08100
N421        N  0.31615291  0.80286950  0.55972936    -0.26300
N422        N  0.30390646  0.79109974  0.54266600    -0.34200
C423        C  0.29281311  0.78079465  0.56534256     0.02000
C424        C  0.29835386  0.78636970  0.59826163     0.08100
C425        C  0.31315998  0.80038799  0.59383244    -0.05000
H426        H  0.28166401  0.76996713  0.55830168     0.08700
H427        H  0.32133795  0.80804680  0.61384041     0.09900
Cu428      Cu  0.30288755  0.78928947  0.98958217     0.44200
Cu429      Cu  0.33684001  0.82115685  0.53595892     0.42000
Cu430      Cu  0.33785174  0.82034180  0.94269229     0.43900
N431        N  0.30461104  0.79049481  0.93647377    -0.33700
N432        N  0.31716626  0.80193902  0.91923597    -0.28000
C433        C  0.31435657  0.79922376  0.88516670    -0.04100
C434        C  0.29937226  0.78538654  0.88095208     0.08200
C435        C  0.29353427  0.78015780  0.91395589     0.02000
H436        H  0.32272707  0.80665486  0.86503708     0.09600
H437        H  0.28210209  0.76963383  0.92116915     0.08700
N438        N  0.35773064  0.83652438  0.97239243    -0.35100
N439        N  0.35731274  0.83681128  0.50658674    -0.27300
C440        C  0.37246632  0.84797741  0.51819012    -0.02600
C441        C  0.38283329  0.85500472  0.98993171     0.06000
C442        C  0.37319522  0.84750491  0.96130303     0.04100
H443        H  0.37586658  0.85046081  0.54518749     0.09200
H444        H  0.37730364  0.84953979  0.93446983     0.08100
N445        N  0.49911666  0.91498390  0.99850222    -0.26300
N446        N  0.48918361  0.93193358  0.99889574    -0.34200
C447        C  0.46959046  0.92799405  0.99767035     0.02000
C448        C  0.46721237  0.90764654  0.99645198     0.08100
C449        C  0.48613589  0.89981383  0.99701574    -0.05000
H450        H  0.45799681  0.93911611  0.99749160     0.08700
H451        H  0.49020637  0.88427960  0.99621836     0.09900
Cu452      Cu  0.50277299  0.95961850  0.00045663     0.44200
Cu453      Cu  0.52984262  0.91318257  0.99937808     0.42000
Cu454      Cu  0.55671419  0.95976810  0.00043389     0.43900
N455        N  0.51985461  0.98531939  0.00088618    -0.33700
N456        N  0.53951288  0.98537522  0.00083106    -0.28000
C457        C  0.54597894  0.00429890  0.00072063    -0.04100
C458        C  0.52960772  0.01662769  0.00071808     0.08200
C459        C  0.51329691  0.00420551  0.00081164     0.02000
H460        H  0.56143251  0.00871256  0.00046685     0.09600
H461        H  0.49782146  0.00853048  0.00062887     0.08700
N462        N  0.57042631  0.93214354  0.99958123    -0.35100
N463        N  0.56056269  0.91514306  0.99924977    -0.27300
C464        C  0.57360883  0.90002853  0.99832324    -0.02600
C465        C  0.59250250  0.90794802  0.99806117     0.06000
C466        C  0.59004084  0.92829172  0.99887281     0.04100
H467        H  0.56960294  0.88447078  0.99765699     0.09200
H468        H  0.60159124  0.93946869  0.99874353     0.08100
N469        N  0.89775262  0.51563797  0.73982276    -0.26300
N470        N  0.91479101  0.50585372  0.73931092    -0.34200
C471        C  0.91100939  0.48621718  0.73978865     0.02000
C472        C  0.89067578  0.48365530  0.74063637     0.08100
C473        C  0.88268723  0.50251232  0.74063682    -0.05000
H474        H  0.92222852  0.47471774  0.73976709     0.08700
H475        H  0.86711395  0.50643833  0.74140682     0.09900
Cu476      Cu  0.94239555  0.51964233  0.73866008     0.44200
Cu477      Cu  0.89562189  0.54635419  0.73997301     0.42000
Cu478      Cu  0.94202307  0.57350947  0.74005437     0.43900
N479        N  0.96795454  0.53693669  0.73897237    -0.33700
N480        N  0.96782011  0.55658844  0.73954816    -0.28000
C481        C  0.98668159  0.56323684  0.73976759    -0.04100
C482        C  0.99916975  0.54698837  0.73929721     0.08200
C483        C  0.98690295  0.53056282  0.73881012     0.02000
H484        H  0.99094465  0.57872911  0.74026219     0.09600
H485        H  0.99137623  0.51513287  0.73842023     0.08700
N486        N  0.91430470  0.58705325  0.74039348    -0.35100
N487        N  0.89735746  0.57709542  0.74034857    -0.27300
C488        C  0.88216096  0.59006408  0.74074125    -0.02600
C489        C  0.88997522  0.60900521  0.74104289     0.06000
C490        C  0.91033866  0.60664692  0.74081218     0.04100
H491        H  0.86661771  0.58597716  0.74089004     0.09200
H492        H  0.92145196  0.61825740  0.74102240     0.08100
N493        N  0.78437420  0.75948498  0.67314762    -0.26300
N494        N  0.77260241  0.77171902  0.69011788    -0.34200
C495        C  0.76229287  0.78280394  0.66735535     0.02000
C496        C  0.76785895  0.77726713  0.63447401     0.08100
C497        C  0.78187943  0.76247311  0.63901780    -0.05000
H498        H  0.75146724  0.79394397  0.67431567     0.08700
H499        H  0.78954424  0.75431193  0.61907084     0.09900
Cu500      Cu  0.77077007  0.77272804  0.74320116     0.43800
Cu501      Cu  0.80272619  0.73884949  0.69708647     0.42000
Cu502      Cu  0.80175086  0.73780087  0.79040921     0.43900
N503        N  0.77197646  0.77106738  0.79633249    -0.33700
N504        N  0.78339386  0.75850868  0.81369597    -0.28000
C505        C  0.78066919  0.76132701  0.84773901    -0.04100
C506        C  0.76684778  0.77631812  0.85180506     0.08200
C507        C  0.76164742  0.78215667  0.81873971     0.02000
H508        H  0.78806784  0.75294480  0.86795339     0.09600
H509        H  0.75112687  0.79357844  0.81141019     0.08700
N510        N  0.81808612  0.71803499  0.76093916    -0.35100
N511        N  0.81846927  0.71848030  0.72673887    -0.27300
C512        C  0.82979665  0.70342939  0.71536633    -0.02600
C513        C  0.83683068  0.69310991  0.74378330     0.06000
C514        C  0.82916882  0.70267371  0.77225856     0.04100
H515        H  0.83238542  0.70005761  0.68842154     0.09200
H516        H  0.83118227  0.69859299  0.79915463     0.08100
N517        N  0.74253560  0.80184639  0.56302427    -0.26300
N518        N  0.75470533  0.79001710  0.54603708    -0.34200
C519        C  0.76567535  0.77957880  0.56878803     0.02000
C520        C  0.76012780  0.78512459  0.60167689     0.08100
C521        C  0.74544911  0.79926582  0.59714889    -0.05000
H522        H  0.77673603  0.76867409  0.56181763     0.08700
H523        H  0.73730752  0.80694875  0.61710264     0.09900
Cu524      Cu  0.75569610  0.78824918  0.99294557     0.44200
Cu525      Cu  0.72206214  0.82036021  0.53910260     0.42000
Cu526      Cu  0.72088948  0.81943980  0.94578216     0.43900
N527        N  0.75395378  0.78943456  0.93981761    -0.33700
N528        N  0.74144119  0.80091030  0.92247471    -0.28000
C529        C  0.74418340  0.79811673  0.88842852    -0.04100
C530        C  0.75907641  0.78419137  0.88434040     0.08200
C531        C  0.76493511  0.77900036  0.91739375     0.02000
H532        H  0.73581571  0.80554015  0.86823049     0.09600
H533        H  0.77629609  0.76841183  0.92470564     0.08700
N534        N  0.70127503  0.83589504  0.97537684    -0.35100
N535        N  0.70178861  0.83625687  0.50957244    -0.27300
C536        C  0.68682969  0.84766365  0.52107461    -0.02600
C537        C  0.67649897  0.85477830  0.99275097     0.06000
C538        C  0.68596966  0.84708939  0.96418867     0.04100
H539        H  0.68350717  0.85023462  0.54804918     0.09200
H540        H  0.68185712  0.84915203  0.93733296     0.08100
N541        N  0.56021460  0.17887255  0.49228700    -0.26300
N542        N  0.57008081  0.16188544  0.49327697    -0.34200
C543        C  0.58968714  0.16576965  0.49430666     0.02000
C544        C  0.59214776  0.18612117  0.49395491     0.08100
C545        C  0.57325794  0.19401481  0.49267236    -0.05000
H546        H  0.60125087  0.15459766  0.99546669     0.08700
H547        H  0.56925257  0.20957586  0.49228280     0.09900
Cu548      Cu  0.55642224  0.13423013  0.99401323     0.44200
Cu549      Cu  0.52948859  0.18076922  0.49130030     0.42000
Cu550      Cu  0.50253639  0.13422533  0.99473593     0.43900
N551        N  0.53931226  0.10857605  0.99596307    -0.33700
N552        N  0.51965658  0.10856854  0.99628310    -0.28000
C553        C  0.51315336  0.08966984  0.99768427    -0.04100
C554        C  0.52950124  0.07730935  0.99826623     0.08200
C555        C  0.54583456  0.08968640  0.99714915     0.02000
H556        H  0.49769104  0.08529337  0.99815422     0.09600
H557        H  0.56130049  0.08532795  0.99712993     0.08700
N558        N  0.48887652  0.16188472  0.49362933    -0.35100
N559        N  0.49876458  0.17886172  0.49232887    -0.27300
C560        C  0.48574765  0.19401498  0.49249571    -0.02600
C561        C  0.46684967  0.18614664  0.49396173     0.06000
C562        C  0.46927790  0.16579217  0.49464529     0.04100
H563        H  0.48977883  0.20957108  0.49187541     0.09200
H564        H  0.45773758  0.15466443  0.99604864     0.08100
N565        N  0.74257901  0.29179494  0.92737736    -0.26300
N566        N  0.75524043  0.30312706  0.94443224    -0.34200
C567        C  0.76632313  0.31343739  0.92174368     0.02000
C568        C  0.76035844  0.30830391  0.88882752     0.08100
C569        C  0.74531184  0.29454662  0.89326894    -0.05000
H570        H  0.77778989  0.32393077  0.92877797     0.08700
H571        H  0.73680394  0.28724219  0.87327132     0.09900
Cu572      Cu  0.75686084  0.30432384  0.99752380     0.44200
Cu573      Cu  0.72176241  0.27363170  0.95113406     0.42000
Cu574      Cu  0.72203185  0.27302397  0.54431313     0.43900
N575        N  0.75536670  0.30274025  0.55061638    -0.33700
N576        N  0.74285217  0.29122668  0.56780285    -0.28000
C577        C  0.74569073  0.29384916  0.60188453    -0.04100
C578        C  0.76066204  0.30768851  0.60615740     0.08200
C579        C  0.76646378  0.31301349  0.57318221     0.02000
H580        H  0.73730469  0.28640201  0.62197674     0.09600
H581        H  0.77780808  0.32364257  0.56601633     0.08700
N582        N  0.70170998  0.25732317  0.51479722    -0.35100
N583        N  0.70163921  0.25756005  0.98059292    -0.27300
C584        C  0.68633304  0.24653290  0.96917619    -0.02600
C585        C  0.67643935  0.23900695  0.99758259     0.06000
C586        C  0.68647044  0.24610414  0.52608882     0.04100
H587        H  0.68252781  0.24444666  0.94223467     0.09200
H588        H  0.68282596  0.24358418  0.55300749     0.08100
N589        N  0.78513918  0.33314109  0.67702098    -0.26300
N590        N  0.77335528  0.32092008  0.69428587    -0.34200
C591        C  0.76294359  0.30990775  0.67178801     0.02000
C592        C  0.76847045  0.31547041  0.63877678     0.08100
C593        C  0.78256821  0.33020391  0.64296511    -0.05000
H594        H  0.75209328  0.29878581  0.67901294     0.08700
H595        H  0.79022461  0.33836990  0.62282528     0.09900
Cu596      Cu  0.77168798  0.31981224  0.74739362     0.44200
Cu597      Cu  0.80359360  0.35371463  0.70043666     0.42000
Cu598      Cu  0.80311170  0.35445263  0.79369716     0.43900
N599        N  0.77310132  0.32139669  0.80047209    -0.33700
N600        N  0.78467590  0.33384982  0.81749332    -0.28000
C601        C  0.78203468  0.33102288  0.85161204    -0.04100
C602        C  0.76810886  0.31613179  0.85608551     0.08200
C603        C  0.76275326  0.31036237  0.82318585     0.02000
H604        H  0.78955632  0.33933792  0.87159614     0.09600
H605        H  0.75211011  0.29903196  0.81617472     0.08700
N606        N  0.81934652  0.37427832  0.76377716    -0.35100
N607        N  0.81952243  0.37396898  0.72957753    -0.27300
C608        C  0.83077197  0.38907816  0.71784655    -0.02600
C609        C  0.83797388  0.39928684  0.74603229     0.06000
C610        C  0.83049219  0.38960344  0.77474518     0.04100
H611        H  0.83318120  0.39257318  0.69082169     0.09200
H612        H  0.83264589  0.39359332  0.80156215     0.08100
C613        C  0.61055752  0.19693202  0.49515579    -0.17500
C614        C  0.62588780  0.20622217  0.99609435     0.06500
C615        C  0.64365988  0.21737527  0.99696632     0.08400
C616        C  0.65869885  0.22711190  0.99743430    -0.18400
C617        C  0.87908941  0.62737529  0.74176572    -0.17500
C618        C  0.86972867  0.64264330  0.74242795     0.06500
C619        C  0.85852684  0.66038216  0.74316199     0.08400
C620        C  0.84876105  0.67539684  0.74361427    -0.18400
C621        C  0.87995956  0.46518937  0.74196587    -0.17500
C622        C  0.87068870  0.44986871  0.74318466     0.06500
C623        C  0.85956230  0.43208663  0.74454299     0.08400
C624        C  0.84985002  0.41703651  0.74544688    -0.18400
C625        C  0.52955415  0.03800650  0.00010189    -0.12300
C626        C  0.52951813  0.05593536  0.99937764    -0.13900
C627        C  0.61090868  0.89716282  0.99660977    -0.17500
C628        C  0.62617299  0.88782655  0.99533600     0.06500
C629        C  0.64387810  0.87660450  0.99397281     0.08400
C630        C  0.65885038  0.86679052  0.99313332    -0.18400
C631        C  0.40066546  0.86676137  0.99043074    -0.17500
C632        C  0.41575936  0.87640135  0.99140986     0.06500
C633        C  0.43355509  0.88749294  0.99300416     0.08400
C634        C  0.44884288  0.89679705  0.99455551    -0.18400
C635        C  0.03848558  0.54718369  0.73963758    -0.12300
C636        C  0.02055258  0.54712698  0.73942791    -0.13900
C637        C  0.17917129  0.62875175  0.74126603    -0.17500
C638        C  0.18844866  0.64408186  0.74063536     0.06500
C639        C  0.19961724  0.66185564  0.74011814     0.08400
C640        C  0.20939204  0.67687576  0.73990147    -0.18400
C641        C  0.44847644  0.19700130  0.49517915    -0.17500
C642        C  0.43328407  0.20644102  0.99617604     0.06500
C643        C  0.41565117  0.21779495  0.99711273     0.08400
C644        C  0.40075489  0.22773512  0.99758817    -0.18400
C645        C  0.21040778  0.41871966  0.74535562    -0.17500
C646        C  0.20052301  0.43365342  0.74532217     0.06500
C647        C  0.18921169  0.45131910  0.74536245     0.08400
C648        C  0.17979544  0.46655343  0.74538420    -0.18400
loop_ 
_geom_bond_atom_site_label_1 
_geom_bond_atom_site_label_2 
_geom_bond_distance 
_geom_bond_site_symmetry_2 
_ccdc_geom_bond_type 
N1            N2   1.322       .  A
N1            C5   1.344       .  A
N1           Cu9   2.073       .  S
N2            C3   1.343       .  A
N2           Cu8   2.058       .  S
C3            C4   1.380       .  A
C3            H6   1.082       .  S
C4            C5   1.383       .  A
C4           C38   1.465       .  S
C5            H7   1.082       .  S
Cu8          N11   2.058       .  S
Cu9          N19   2.073       .  S
Cu10         N12   2.072       .  S
Cu10         N18   2.072       .  S
N11          N12   1.322       .  A
N11          C15   1.343       .  A
N12          C13   1.344       .  A
C13          C14   1.383       .  A
C13          H16   1.082       .  S
C14          C15   1.380       .  A
C14          C28   1.465       .  S
C15          H17   1.082       .  S
N18          N19   1.323       .  A
N18          C22   1.345       .  A
N19          C20   1.345       .  A
C20          C21   1.380       .  A
C20          H23   1.082       .  S
C21          C22   1.380       .  A
C21         C321   1.438       .  S
C22          H24   1.082       .  S
N25          N26   1.322       .  A
N25          C29   1.344       .  A
N25         Cu33   2.073       .  S
N26          C27   1.343       .  A
N26        Cu356   2.058   1_554  S
C27          C28   1.380       .  A
C27          H30   1.082       .  S
C28          C29   1.383       .  A
C29          H31   1.082       .  S
Cu32         N35   2.058       .  S
Cu32        N350   2.058       .  S
Cu33         N43   2.073       .  S
Cu34         N36   2.073       .  S
Cu34         N42   2.073       .  S
N35          N36   1.322       .  A
N35          C39   1.343       .  A
N36          C37   1.344       .  A
C37          C38   1.383       .  A
C37          H40   1.082       .  S
C38          C39   1.380       .  A
C39          H41   1.082       .  S
N42         N367   1.323       .  A
N42          C46   1.345       .  A
N43         N366   1.323   1_554  A
N43          C44   1.346       .  A
C44         C369   1.380   1_554  A
C44          H47   1.082       .  S
C45          C46   1.379       .  A
C45         C368   1.380       .  A
C45         C320   1.438       .  S
C46          H48   1.082       .  S
N49          N50   1.323       .  A
N49          C53   1.345       .  A
N49         Cu57   2.073       .  S
N50          C51   1.346       .  A
N50         Cu56   2.077       .  S
C51          C52   1.380       .  A
C51          H54   1.082       .  S
C52          C53   1.379       .  A
C52         C313   1.438       .  S
C53          H55   1.082       .  S
Cu56         N59   2.077       .  S
Cu57         N67   2.073       .  S
Cu58         N60   2.078       .  S
Cu58         N66   2.077       .  S
N59          N60   1.323       .  A
N59          C63   1.346       .  A
N60          C61   1.346       .  A
C61          C62   1.380       .  A
C61          H64   1.082       .  S
C62          C63   1.380       .  A
C62         C311   1.440       .  S
C63          H65   1.082       .  S
N66          N67   1.323       .  A
N66          C70   1.346       .  A
N67          C68   1.345       .  A
C68          C69   1.379       .  A
C68          H71   1.082       .  S
C69          C70   1.380       .  A
C69         C324   1.438       .  S
C70          H72   1.082       .  S
N73          N74   1.322       .  A
N73          C77   1.344       .  A
N73         Cu81   2.072       .  S
N74          C75   1.343       .  A
N74         Cu80   2.058       .  S
C75          C76   1.380       .  A
C75          H78   1.082       .  S
C76          C77   1.383       .  A
C76         C100   1.465       .  S
C77          H79   1.082       .  S
Cu80         N83   2.058       .  S
Cu81         N91   2.073       .  S
Cu82         N84   2.074       .  S
Cu82         N90   2.074       .  S
N83          N84   1.322       .  A
N83          C87   1.343       .  A
N84          C85   1.344       .  A
C85          C86   1.383       .  A
C85          H88   1.082       .  S
C86          C87   1.380       .  A
C86         C110   1.466       .  S
C87          H89   1.082       .  S
N90          N91   1.323       .  A
N90          C94   1.346       .  A
N91          C92   1.346       .  A
C92          C93   1.380       .  A
C92          H95   1.082       .  S
C93          C94   1.380       .  A
C93         C316   1.438       .  S
C94          H96   1.082       .  S
N97          N98   1.322       .  A
N97         C101   1.344       .  A
N97        Cu105   2.071       .  S
N98          C99   1.343       .  A
N98        Cu428   2.058   1_554  S
C99         C100   1.380       .  A
C99         H102   1.082       .  S
C100        C101   1.383       .  A
C101        H103   1.082       .  S
Cu104       N107   2.058       .  S
Cu104       N422   2.058       .  S
Cu105       N115   2.071       .  S
Cu106       N108   2.075       .  S
Cu106       N114   2.075       .  S
N107        N108   1.322       .  A
N107        C111   1.343       .  A
N108        C109   1.344       .  A
C109        C110   1.383       .  A
C109        H112   1.082       .  S
C110        C111   1.380       .  A
C111        H113   1.082       .  S
N114        N439   1.323       .  A
N114        C118   1.346       .  A
N115        N438   1.323   1_554  A
N115        C116   1.345       .  A
C116        C441   1.379   1_554  A
C116        H119   1.082       .  S
C117        C118   1.380       .  A
C117        C440   1.379       .  A
C117        C307   1.438       .  S
C118        H120   1.082       .  S
N121        N122   1.323       .  A
N121        C125   1.345       .  A
N121       Cu129   2.072       .  S
N122        C123   1.346       .  A
N122       Cu128   2.077       .  S
C123        C124   1.380       .  A
C123        H126   1.082       .  S
C124        C125   1.379       .  A
C124        C310   1.438       .  S
C125        H127   1.082       .  S
Cu128       N131   2.077       .  S
Cu129       N139   2.072       .  S
Cu130       N132   2.077       .  S
Cu130       N138   2.077       .  S
N131        N132   1.324       .  A
N131        C135   1.346   1_565  A
N132        C133   1.346   1_565  A
C133        C134   1.380       .  A
C133        H136   1.082       .  S
C134        C135   1.380       .  A
C134        C301   1.439       .  S
C135        H137   1.082       .  S
N138        N139   1.323       .  A
N138        C142   1.346       .  A
N139        C140   1.345       .  A
C140        C141   1.379       .  A
C140        H143   1.082       .  S
C141        C142   1.380       .  A
C141        C303   1.438       .  S
C142        H144   1.082       .  S
N145        N146   1.323       .  A
N145        C149   1.345       .  A
N145       Cu153   2.073       .  S
N146        C147   1.346       .  A
N146       Cu152   2.077       .  S
C147        C148   1.380       .  A
C147        H150   1.082       .  S
C148        C149   1.379       .  A
C148        C297   1.438       .  S
C149        H151   1.082       .  S
Cu152       N155   2.077       .  S
Cu153       N163   2.073       .  S
Cu154       N156   2.078       .  S
Cu154       N162   2.078       .  S
N155        N156   1.323       .  A
N155        C159   1.346       .  A
N156        C157   1.346       .  A
C157        C158   1.380       .  A
C157        H160   1.082       .  S
C158        C159   1.380       .  A
C158        C312   1.440   1_655  S
C159        H161   1.082       .  S
N162        N163   1.323       .  A
N162        C166   1.346       .  A
N163        C164   1.346       .  A
C164        C165   1.379       .  A
C164        H167   1.082       .  S
C165        C166   1.380       .  A
C165        C293   1.438       .  S
C166        H168   1.082       .  S
N169        N170   1.322       .  A
N169        C173   1.344       .  A
N169       Cu177   2.072       .  S
N170        C171   1.343       .  A
N170       Cu176   2.058       .  S
C171        C172   1.380       .  A
C171        H174   1.082       .  S
C172        C173   1.383       .  A
C172        C196   1.466       .  S
C173        H175   1.082       .  S
Cu176       N179   2.058       .  S
Cu177       N187   2.072       .  S
Cu178       N180   2.075       .  S
Cu178       N186   2.075       .  S
N179        N180   1.322       .  A
N179        C183   1.343       .  A
N180        C181   1.344       .  A
C181        C182   1.383       .  A
C181        H184   1.082       .  S
C182        C183   1.380       .  A
C182        C206   1.466       .  S
C183        H185   1.082       .  S
N186        N187   1.323       .  A
N186        C190   1.346       .  A
N187        C188   1.345       .  A
C188        C189   1.379       .  A
C188        H191   1.082       .  S
C189        C190   1.380       .  A
C189        C296   1.438       .  S
C190        H192   1.082       .  S
N193        N194   1.322       .  A
N193        C197   1.344       .  A
N193       Cu201   2.071       .  S
N194        C195   1.343       .  A
N194       Cu524   2.058   1_554  S
C195        C196   1.380       .  A
C195        H198   1.082       .  S
C196        C197   1.383       .  A
C197        H199   1.082       .  S
Cu200       N203   2.059       .  S
Cu200       N518   2.058       .  S
Cu201       N211   2.072       .  S
Cu202       N204   2.075       .  S
Cu202       N210   2.075       .  S
N203        N204   1.322       .  A
N203        C207   1.343       .  A
N204        C205   1.344       .  A
C205        C206   1.383       .  A
C205        H208   1.082       .  S
C206        C207   1.380       .  A
C207        H209   1.082       .  S
N210        N535   1.323       .  A
N210        C214   1.346       .  A
N211        N534   1.323   1_554  A
N211        C212   1.345       .  A
C212        C537   1.379   1_554  A
C212        H215   1.082       .  S
C213        C214   1.380       .  A
C213        C536   1.379       .  A
C213        C306   1.438       .  S
C214        H216   1.082       .  S
N217        N218   1.323       .  A
N217        C221   1.345       .  A
N217       Cu225   2.073       .  S
N218        C219   1.346       .  A
N218       Cu548   2.077       .  S
C219        C220   1.380       .  A
C219        H546   1.082       .  S
C220        C221   1.379       .  A
C220        C289   1.438       .  S
C221        H223   1.082       .  S
H222        C543   1.082       .  S
Cu224       N227   2.077       .  S
Cu224       N542   2.077       .  S
Cu225       N235   2.073       .  S
Cu226       N228   2.078       .  S
Cu226       N558   2.077       .  S
N227        N228   1.323       .  A
N227        C231   1.346       .  A
N228        C229   1.346       .  A
C229        C230   1.380       .  A
C229        H232   1.082       .  S
C230        C231   1.380       .  A
C230        C302   1.439       .  S
C231        H233   1.082       .  S
N234        N235   1.323       .  A
N234        C238   1.346       .  A
N234       Cu550   2.077       .  S
N235        C236   1.345       .  A
C236        C237   1.379       .  A
C236        H239   1.082       .  S
C237        C238   1.380       .  A
C237        C317   1.438       .  S
C238        H564   1.082       .  S
H240        C562   1.082       .  S
N241        N242   1.322       .  A
N241        C245   1.344       .  A
N241       Cu249   2.072       .  S
N242        C243   1.343       .  A
N242       Cu248   2.058       .  S
C243        C244   1.380       .  A
C243        H246   1.082       .  S
C244        C245   1.383       .  A
C244        C278   1.465       .  S
C245        H247   1.082       .  S
Cu248       N575   2.058       .  S
Cu249       N259   2.072       .  S
Cu250       N252   2.073       .  S
Cu250       N258   2.073       .  S
N251        N252   1.322       .  A
N251        C255   1.343       .  A
N251       Cu572   2.058   1_554  S
N252        C253   1.344       .  A
C253        C254   1.383       .  A
C253        H256   1.082       .  S
C254        C255   1.380       .  A
C254        C268   1.465       .  S
C255        H257   1.082       .  S
N258        N583   1.323   1_554  A
N258        C262   1.346       .  A
N259        N582   1.323       .  A
N259        C260   1.345       .  A
C260        C261   1.379       .  A
C260        H263   1.082       .  S
C261        C586   1.380       .  A
C261        C292   1.438       .  S
C262        C585   1.380   1_554  A
C262        H264   1.082       .  S
N265        N266   1.322       .  A
N265        C269   1.344       .  A
N265       Cu273   2.072       .  S
N266        C267   1.343       .  A
N266       Cu272   2.058       .  S
C267        C268   1.380       .  A
C267        H270   1.082       .  S
C268        C269   1.383       .  A
C269        H271   1.082       .  S
Cu272       N275   2.058       .  S
Cu273       N283   2.072       .  S
Cu274       N276   2.073       .  S
Cu274       N282   2.074       .  S
N275        N276   1.322       .  A
N275        C279   1.343       .  A
N276        C277   1.344       .  A
C277        C278   1.383       .  A
C277        H280   1.082       .  S
C278        C279   1.380       .  A
C279        H281   1.082       .  S
N282        N283   1.323       .  A
N282        C286   1.346       .  A
N283        C284   1.345       .  A
C284        C285   1.379       .  A
C284        H287   1.082       .  S
C285        C286   1.380       .  A
C285        C300   1.438       .  S
C286        H288   1.082       .  S
C289        C614   1.206       .  T
C290        C613   1.206       .  T
C290        C291   1.413       .  S
C291        C292   1.206       .  T
C293        C294   1.206       .  T
C294        C295   1.413       .  S
C295        C296   1.206       .  T
C297        C298   1.206       .  T
C298        C299   1.413       .  S
C299        C300   1.206       .  T
C301        C302   1.207       .  T
C303        C304   1.206       .  T
C304        C305   1.413       .  S
C305        C306   1.206       .  T
C307        C308   1.206       .  T
C308        C309   1.413       .  S
C309        C310   1.206       .  T
C311        C312   1.207       .  T
C313        C314   1.206       .  T
C314        C315   1.413       .  S
C315        C316   1.206       .  T
C317        C642   1.206       .  T
C318        C641   1.206       .  T
C318        C319   1.413       .  S
C319        C320   1.206       .  T
C321        C322   1.206       .  T
C322        C323   1.413       .  S
C323        C324   1.206       .  T
N325        N326   1.322       .  A
N325        C329   1.344       .  A
N325       Cu333   2.073       .  S
N326        C327   1.343       .  A
N326       Cu332   2.058       .  S
C327        C328   1.380       .  A
C327        H330   1.082       .  S
C328        C329   1.383       .  A
C328        C362   1.465       .  S
C329        H331   1.082       .  S
Cu332       N335   2.058       .  S
Cu333       N343   2.073       .  S
Cu334       N336   2.072       .  S
Cu334       N342   2.072       .  S
N335        N336   1.322       .  A
N335        C339   1.343       .  A
N336        C337   1.344       .  A
C337        C338   1.383       .  A
C337        H340   1.082       .  S
C338        C339   1.380       .  A
C338        C352   1.465       .  S
C339        H341   1.082       .  S
N342        N343   1.323       .  A
N342        C346   1.345       .  A
N343        C344   1.345       .  A
C344        C345   1.380       .  A
C344        H347   1.082       .  S
C345        C346   1.380       .  A
C345        C645   1.438       .  S
C346        H348   1.082       .  S
N349        N350   1.322       .  A
N349        C353   1.344       .  A
N349       Cu357   2.073       .  S
N350        C351   1.343       .  A
C351        C352   1.380       .  A
C351        H354   1.082       .  S
C352        C353   1.383       .  A
C353        H355   1.082       .  S
Cu356       N359   2.058       .  S
Cu357       N367   2.073       .  S
Cu358       N360   2.073       .  S
Cu358       N366   2.073       .  S
N359        N360   1.322       .  A
N359        C363   1.343       .  A
N360        C361   1.344       .  A
C361        C362   1.383       .  A
C361        H364   1.082       .  S
C362        C363   1.380       .  A
C363        H365   1.082       .  S
N366        C370   1.345       .  A
N367        C368   1.346       .  A
C368        H371   1.082       .  S
C369        C370   1.379       .  A
C369        C644   1.438       .  S
C370        H372   1.082       .  S
N373        N374   1.323       .  A
N373        C377   1.345       .  A
N373       Cu381   2.073       .  S
N374        C375   1.346       .  A
N374       Cu380   2.077       .  S
C375        C376   1.380       .  A
C375        H378   1.082       .  S
C376        C377   1.379       .  A
C376        C637   1.438       .  S
C377        H379   1.082       .  S
Cu380       N383   2.077       .  S
Cu381       N391   2.073       .  S
Cu382       N384   2.078       .  S
Cu382       N390   2.077       .  S
N383        N384   1.323       .  A
N383        C387   1.346       .  A
N384        C385   1.346       .  A
C385        C386   1.380       .  A
C385        H388   1.082       .  S
C386        C387   1.380       .  A
C386        C635   1.440       .  S
C387        H389   1.082       .  S
N390        N391   1.323       .  A
N390        C394   1.346       .  A
N391        C392   1.345       .  A
C392        C393   1.379       .  A
C392        H395   1.082       .  S
C393        C394   1.380       .  A
C393        C648   1.438       .  S
C394        H396   1.082       .  S
N397        N398   1.322       .  A
N397        C401   1.344       .  A
N397       Cu405   2.072       .  S
N398        C399   1.343       .  A
N398       Cu404   2.058       .  S
C399        C400   1.380       .  A
C399        H402   1.082       .  S
C400        C401   1.383       .  A
C400        C424   1.465       .  S
C401        H403   1.082       .  S
Cu404       N407   2.058       .  S
Cu405       N415   2.073       .  S
Cu406       N408   2.074       .  S
Cu406       N414   2.074       .  S
N407        N408   1.322       .  A
N407        C411   1.343       .  A
N408        C409   1.344       .  A
C409        C410   1.383       .  A
C409        H412   1.082       .  S
C410        C411   1.380       .  A
C410        C434   1.466       .  S
C411        H413   1.082       .  S
N414        N415   1.323       .  A
N414        C418   1.346       .  A
N415        C416   1.346       .  A
C416        C417   1.380       .  A
C416        H419   1.082       .  S
C417        C418   1.380       .  A
C417        C640   1.438       .  S
C418        H420   1.082       .  S
N421        N422   1.322       .  A
N421        C425   1.344       .  A
N421       Cu429   2.071       .  S
N422        C423   1.343       .  A
C423        C424   1.380       .  A
C423        H426   1.082       .  S
C424        C425   1.383       .  A
C425        H427   1.082       .  S
Cu428       N431   2.058       .  S
Cu429       N439   2.071       .  S
Cu430       N432   2.075       .  S
Cu430       N438   2.075       .  S
N431        N432   1.322       .  A
N431        C435   1.343       .  A
N432        C433   1.344       .  A
C433        C434   1.383       .  A
C433        H436   1.082       .  S
C434        C435   1.380       .  A
C435        H437   1.082       .  S
N438        C442   1.346       .  A
N439        C440   1.345       .  A
C440        H443   1.082       .  S
C441        C442   1.380       .  A
C441        C631   1.438       .  S
C442        H444   1.082       .  S
N445        N446   1.323       .  A
N445        C449   1.345       .  A
N445       Cu453   2.072       .  S
N446        C447   1.346       .  A
N446       Cu452   2.077   1_556  S
C447        C448   1.380       .  A
C447        H450   1.082       .  S
C448        C449   1.379       .  A
C448        C634   1.438       .  S
C449        H451   1.082       .  S
Cu452       N455   2.077       .  S
Cu453       N463   2.072       .  S
Cu454       N456   2.078       .  S
Cu454       N462   2.077   1_554  S
N455        N456   1.324       .  A
N455        C459   1.346   1_565  A
N456        C457   1.346   1_565  A
C457        C458   1.380       .  A
C457        H460   1.082       .  S
C458        C459   1.380       .  A
C458        C625   1.439       .  S
C459        H461   1.082       .  S
N462        N463   1.323       .  A
N462        C466   1.346       .  A
N463        C464   1.345       .  A
C464        C465   1.379       .  A
C464        H467   1.082       .  S
C465        C466   1.380       .  A
C465        C627   1.438       .  S
C466        H468   1.082       .  S
N469        N470   1.323       .  A
N469        C473   1.345       .  A
N469       Cu477   2.073       .  S
N470        C471   1.346       .  A
N470       Cu476   2.077       .  S
C471        C472   1.380       .  A
C471        H474   1.082       .  S
C472        C473   1.379       .  A
C472        C621   1.438       .  S
C473        H475   1.082       .  S
Cu476       N479   2.077       .  S
Cu477       N487   2.073       .  S
Cu478       N480   2.078       .  S
Cu478       N486   2.078       .  S
N479        N480   1.323       .  A
N479        C483   1.346       .  A
N480        C481   1.346       .  A
C481        C482   1.380       .  A
C481        H484   1.082       .  S
C482        C483   1.380       .  A
C482        C636   1.440   1_655  S
C483        H485   1.082       .  S
N486        N487   1.323       .  A
N486        C490   1.346       .  A
N487        C488   1.346       .  A
C488        C489   1.379       .  A
C488        H491   1.082       .  S
C489        C490   1.380       .  A
C489        C617   1.438       .  S
C490        H492   1.082       .  S
N493        N494   1.322       .  A
N493        C497   1.344       .  A
N493       Cu501   2.072       .  S
N494        C495   1.343       .  A
N494       Cu500   2.058       .  S
C495        C496   1.380       .  A
C495        H498   1.082       .  S
C496        C497   1.383       .  A
C496        C520   1.466       .  S
C497        H499   1.082       .  S
Cu500       N503   2.058       .  S
Cu501       N511   2.072       .  S
Cu502       N504   2.075       .  S
Cu502       N510   2.075       .  S
N503        N504   1.322       .  A
N503        C507   1.343       .  A
N504        C505   1.344       .  A
C505        C506   1.383       .  A
C505        H508   1.082       .  S
C506        C507   1.380       .  A
C506        C530   1.466       .  S
C507        H509   1.082       .  S
N510        N511   1.323       .  A
N510        C514   1.346       .  A
N511        C512   1.345       .  A
C512        C513   1.379       .  A
C512        H515   1.082       .  S
C513        C514   1.380       .  A
C513        C620   1.438       .  S
C514        H516   1.082       .  S
N517        N518   1.322       .  A
N517        C521   1.344       .  A
N517       Cu525   2.071       .  S
N518        C519   1.343       .  A
C519        C520   1.380       .  A
C519        H522   1.082       .  S
C520        C521   1.383       .  A
C521        H523   1.082       .  S
Cu524       N527   2.058       .  S
Cu525       N535   2.072       .  S
Cu526       N528   2.075       .  S
Cu526       N534   2.075       .  S
N527        N528   1.322       .  A
N527        C531   1.343       .  A
N528        C529   1.344       .  A
C529        C530   1.383       .  A
C529        H532   1.082       .  S
C530        C531   1.380       .  A
C531        H533   1.082       .  S
N534        C538   1.346       .  A
N535        C536   1.345       .  A
C536        H539   1.082       .  S
C537        C538   1.380       .  A
C537        C630   1.438       .  S
C538        H540   1.082       .  S
N541        N542   1.323       .  A
N541        C545   1.345       .  A
N541       Cu549   2.073       .  S
N542        C543   1.346       .  A
C543        C544   1.380       .  A
C544        C545   1.379       .  A
C544        C613   1.438       .  S
C545        H547   1.082       .  S
Cu548       N551   2.077       .  S
Cu549       N559   2.073       .  S
Cu550       N552   2.078       .  S
N551        N552   1.323       .  A
N551        C555   1.346       .  A
N552        C553   1.346       .  A
C553        C554   1.380       .  A
C553        H556   1.082       .  S
C554        C555   1.380       .  A
C554        C626   1.439       .  S
C555        H557   1.082       .  S
N558        N559   1.323       .  A
N558        C562   1.346       .  A
N559        C560   1.345       .  A
C560        C561   1.379       .  A
C560        H563   1.082       .  S
C561        C562   1.380       .  A
C561        C641   1.438       .  S
N565        N566   1.322       .  A
N565        C569   1.344       .  A
N565       Cu573   2.072       .  S
N566        C567   1.343       .  A
N566       Cu572   2.058       .  S
C567        C568   1.380       .  A
C567        H570   1.082       .  S
C568        C569   1.383       .  A
C568        C602   1.465       .  S
C569        H571   1.082       .  S
Cu573       N583   2.072       .  S
Cu574       N576   2.073       .  S
Cu574       N582   2.073       .  S
N575        N576   1.322       .  A
N575        C579   1.343       .  A
N576        C577   1.344       .  A
C577        C578   1.383       .  A
C577        H580   1.082       .  S
C578        C579   1.380       .  A
C578        C592   1.465       .  S
C579        H581   1.082       .  S
N582        C586   1.346       .  A
N583        C584   1.345       .  A
C584        C585   1.379       .  A
C584        H587   1.082       .  S
C585        C616   1.438       .  S
C586        H588   1.082       .  S
N589        N590   1.322       .  A
N589        C593   1.344       .  A
N589       Cu597   2.072       .  S
N590        C591   1.343       .  A
N590       Cu596   2.058       .  S
C591        C592   1.380       .  A
C591        H594   1.082       .  S
C592        C593   1.383       .  A
C593        H595   1.082       .  S
Cu596       N599   2.058       .  S
Cu597       N607   2.072       .  S
Cu598       N600   2.073       .  S
Cu598       N606   2.074       .  S
N599        N600   1.322       .  A
N599        C603   1.343       .  A
N600        C601   1.344       .  A
C601        C602   1.383       .  A
C601        H604   1.082       .  S
C602        C603   1.380       .  A
C603        H605   1.082       .  S
N606        N607   1.323       .  A
N606        C610   1.346       .  A
N607        C608   1.345       .  A
C608        C609   1.379       .  A
C608        H611   1.082       .  S
C609        C610   1.380       .  A
C609        C624   1.438       .  S
C610        H612   1.082       .  S
C614        C615   1.413       .  S
C615        C616   1.206       .  T
C617        C618   1.206       .  T
C618        C619   1.413       .  S
C619        C620   1.206       .  T
C621        C622   1.206       .  T
C622        C623   1.413       .  S
C623        C624   1.206       .  T
C625        C626   1.207   1_554  T
C627        C628   1.206       .  T
C628        C629   1.413       .  S
C629        C630   1.206       .  T
C631        C632   1.206       .  T
C632        C633   1.413       .  S
C633        C634   1.206       .  T
C635        C636   1.207       .  T
C637        C638   1.206       .  T
C638        C639   1.413       .  S
C639        C640   1.206       .  T
C642        C643   1.413       .  S
C643        C644   1.206       .  T
C645        C646   1.206       .  T
C646        C647   1.413       .  S
C647        C648   1.206       .  T
