geometry optimzed in LAMMPS
_audit_creation_date              2020-11-30 
_audit_creation_method            'lammps2cif' 
_symmetry_space_group_name_H-M    'P1' 
_symmetry_Int_Tables_number       1 
_symmetry_cell_setting            triclinic 
loop_ 
_symmetry_equiv_pos_as_xyz 
  x,y,z 
_cell_length_a                    34.68608539 
_cell_length_b                    34.63794483298539 
_cell_length_c                    34.6693550855774 
_cell_angle_alpha                 89.99900984599785 
_cell_angle_beta                  89.99066261385934 
_cell_angle_gamma                 90.00905937407707 
loop_ 
_atom_site_label 
_atom_site_type_symbol 
_atom_site_fract_x 
_atom_site_fract_y 
_atom_site_fract_z 
_atom_site_charge 
C1          C  0.17309117  0.17360497  0.17470586     0.90700
C2          C  0.16312435  0.17125061  0.21788224    -0.49600
C3          C  0.18608519  0.19398641  0.24042941     0.13600
C4          C  0.21666564  0.21681447  0.21779862     0.24500
C5          C  0.17077613  0.21671173  0.16459198    -0.50300
C6          C  0.19358830  0.23927828  0.18734286     0.13700
C7          C  0.21606674  0.16335680  0.17207000    -0.49800
C8          C  0.23883689  0.18613792  0.19462892     0.14300
H9          H  0.13983907  0.15375540  0.22941133     0.18800
H10         H  0.23534153  0.23532961  0.23616426     0.04500
H11         H  0.15311745  0.22821845  0.14146545     0.19100
H12         H  0.22736906  0.14028201  0.15422226     0.18900
C13         C  0.10343278  0.10648498  0.10443096     0.90700
C14         C  0.06046037  0.10973504  0.11468580    -0.49600
C15         C  0.03729234  0.08796968  0.09149715     0.13600
C16         C  0.05907181  0.06506368  0.06041762     0.24500
C17         C  0.11251958  0.06309642  0.10596061    -0.50300
C18         C  0.08913049  0.04151151  0.08281391     0.13700
C19         C  0.10608620  0.11733886  0.06152104    -0.49800
C20         C  0.08283639  0.09541518  0.03854611     0.14300
H21         H  0.04950392  0.12706131  0.13833276     0.18800
H22         H  0.04012767  0.04729866  0.04158664     0.04500
H23         H  0.13560254  0.05074771  0.12310592     0.19100
H24         H  0.12455558  0.14003989  0.05040655     0.18900
C25         C  0.92724927  0.60711323  0.42042746     0.90700
C26         C  0.97029812  0.61031515  0.41056378    -0.49600
C27         C  0.99325090  0.58878582  0.43416022     0.13600
C28         C  0.97116135  0.56605025  0.46519169     0.24500
C29         C  0.91816090  0.56370477  0.41914120    -0.50300
C30         C  0.94128895  0.54226029  0.44268738     0.13700
C31         C  0.92418631  0.61833084  0.46319538    -0.49800
C32         C  0.94720925  0.59662215  0.48656480     0.14300
H33         H  0.98148783  0.62755213  0.38694497     0.18800
H34         H  0.98993141  0.54847474  0.48436244     0.04500
H35         H  0.89525004  0.55123930  0.40183652     0.19100
H36         H  0.90569962  0.64118362  0.47391909     0.18900
C37         C  0.85764134  0.67399290  0.35002323     0.90700
C38         C  0.81468123  0.66385105  0.35329340    -0.49600
C39         C  0.79171691  0.68635069  0.33066500     0.13600
C40         C  0.81366549  0.71662424  0.30680090     0.24500
C41         C  0.86712753  0.67095703  0.30684219    -0.50300
C42         C  0.84397703  0.69336601  0.28424454     0.13700
C43         C  0.86012033  0.71726595  0.35949408    -0.49800
C44         C  0.83699930  0.73953398  0.33672873     0.14300
H45         H  0.80352536  0.64105776  0.37161388     0.18800
H46         H  0.79481069  0.73486038  0.28834386     0.04500
H47         H  0.89023997  0.65325640  0.29532373     0.19100
H48         H  0.87787056  0.72905338  0.38241265     0.18900
C49         C  0.60285605  0.42288798  0.92052403     0.90700
C50         C  0.55973306  0.41957927  0.91095993    -0.49600
C51         C  0.53691146  0.44159044  0.93427498     0.13600
C52         C  0.55924168  0.46484727  0.96477288     0.24500
C53         C  0.61201819  0.46624129  0.91839638    -0.50300
C54         C  0.58907202  0.48816302  0.94167710     0.13700
C55         C  0.60613052  0.41246355  0.96346183    -0.49800
C56         C  0.58327744  0.43462357  0.98656614     0.14300
H57         H  0.54840907  0.40190625  0.88776110     0.18800
H58         H  0.54062079  0.48280349  0.98373938     0.04500
H59         H  0.63494648  0.47833879  0.90079790     0.19100
H60         H  0.62461734  0.38977101  0.97448929     0.18900
C61         C  0.67304880  0.35548860  0.85112864     0.90700
C62         C  0.66364934  0.35804708  0.80789592    -0.49600
C63         C  0.68723543  0.33588765  0.78548864     0.13600
C64         C  0.71790387  0.31334083  0.80830976     0.24500
C65         C  0.67128108  0.31223994  0.86088067    -0.50300
C66         C  0.69481864  0.29020759  0.83829553     0.13700
C67         C  0.71580567  0.36640143  0.85446293    -0.49800
C68         C  0.73925278  0.34415864  0.83208089     0.14300
H69         H  0.64023423  0.37520676  0.79621661     0.18800
H70         H  0.73712487  0.29530773  0.79002997     0.04500
H71         H  0.65349146  0.30026620  0.88371625     0.19100
H72         H  0.72648961  0.38946052  0.87270607     0.18900
C73         C  0.42691193  0.92341088  0.60650862     0.90700
C74         C  0.46999478  0.92052383  0.61634974    -0.49600
C75         C  0.49279397  0.94212121  0.59263224     0.13600
C76         C  0.47049613  0.96457124  0.56154657     0.24500
C77         C  0.41751526  0.96672329  0.60765290    -0.50300
C78         C  0.44048952  0.98821797  0.58402019     0.13700
C79         C  0.42385313  0.91199335  0.56384160    -0.49800
C80         C  0.44666771  0.93376025  0.54037309     0.14300
H81         H  0.48130039  0.90342865  0.63998046     0.18800
H82         H  0.48910415  0.98219786  0.54225455     0.04500
H83         H  0.39450670  0.97909858  0.62493279     0.19100
H84         H  0.40546749  0.88899681  0.55323280     0.18900
C85         C  0.35738477  0.85555779  0.67571934     0.90700
C86         C  0.36661822  0.85774602  0.71899612    -0.49600
C87         C  0.34347519  0.83472185  0.74098219     0.13600
C88         C  0.31346303  0.81175358  0.71777222     0.24500
C89         C  0.36021837  0.81254987  0.66531835    -0.50300
C90         C  0.33716752  0.78966702  0.68751450     0.13700
C91         C  0.31440793  0.86551972  0.67242601    -0.49800
C92         C  0.29147368  0.84241173  0.69446372     0.14300
H93         H  0.38950032  0.87540885  0.73101803     0.18800
H94         H  0.29462841  0.79300637  0.73574426     0.04500
H95         H  0.37830074  0.80135026  0.64233395     0.19100
H96         H  0.30324030  0.88871854  0.65466685     0.18900
O97         O  0.46594704  0.43868943  0.15060176    -0.53600
C98         C  0.56137336  0.42433735  0.10093884     0.79000
O99         O  0.57183949  0.44752006  0.22683717    -0.54800
C100        C  0.44736018  0.43309931  0.18140401     0.79000
C101        C  0.52008499  0.33564025  0.19141309     0.81400
Cd102      Cd  0.52764608  0.41811342  0.17638797     1.37500
O103        O  0.52777088  0.43578289  0.10873393    -0.53600
O104        O  0.51033204  0.35101185  0.15993099    -0.52400
C105        C  0.55875977  0.48144521  0.22231014     0.81300
O106        O  0.53602010  0.35758411  0.21600889    -0.54800
O107        O  0.58111981  0.41055918  0.12847457    -0.53300
O108        O  0.46595084  0.42170928  0.21062551    -0.53300
O109        O  0.53313126  0.48564845  0.19690011    -0.52400
O110        O  0.25241181  0.36110544  0.18186391    -0.53600
C111        C  0.33146782  0.43563362  0.17473584     0.79000
O112        O  0.23729348  0.46644493  0.10112160    -0.54800
C113        C  0.21800908  0.35309581  0.17329991     0.79000
C114        C  0.22273426  0.47613324  0.22525810     0.81400
Cd115      Cd  0.25107987  0.42861305  0.16188426     1.37500
O116        O  0.31424405  0.40375069  0.17902586    -0.53600
O117        O  0.25297652  0.45606767  0.22712015    -0.52400
C118        C  0.25579062  0.44362918  0.07928026     0.81300
O119        O  0.20437641  0.47506840  0.19360338    -0.54800
O120        O  0.31159130  0.46457294  0.16476782    -0.53300
O121        O  0.19750483  0.38024656  0.15994935    -0.53300
O122        O  0.26925273  0.41363591  0.09482598    -0.52400
O123        O  0.11414802  0.52996733  0.43129462    -0.53600
C124        C  0.18805811  0.44890164  0.42656950     0.79000
O125        O  0.21906249  0.53927551  0.35077058    -0.54800
C126        C  0.10694002  0.56430294  0.42161681     0.79000
C127        C  0.22921946  0.55757989  0.47533205     0.81400
Cd128      Cd  0.18164736  0.52916291  0.41221704     1.37500
O129        O  0.15724342  0.46713637  0.43330006    -0.53600
O130        O  0.20480462  0.53087802  0.47881554    -0.52400
C131        C  0.19493531  0.52165537  0.32961245     0.81300
O132        O  0.23240827  0.57264572  0.44208599    -0.54800
O133        O  0.21647701  0.46775324  0.41363797    -0.53300
O134        O  0.13463826  0.58394753  0.40802677    -0.53300
O135        O  0.16429231  0.51050633  0.34573677    -0.52400
O136        O  0.18200612  0.25419190  0.36205578    -0.53600
C137        C  0.18139455  0.33317832  0.43410892     0.79000
O138        O  0.10593013  0.24657052  0.47188796    -0.54800
C139        C  0.17398294  0.21948096  0.35456181     0.79000
C140        C  0.22815089  0.22260061  0.47813835     0.81400
Cd141      Cd  0.16553005  0.25285180  0.43060596     1.37500
O142        O  0.18843378  0.31360393  0.40419842    -0.53600
O143        O  0.23074450  0.25277931  0.45803540    -0.52400
C144        C  0.08310989  0.25927371  0.44630380     0.81300
O145        O  0.19598770  0.20512740  0.47725625    -0.54800
O146        O  0.16737041  0.31571235  0.46289638    -0.53300
O147        O  0.16262966  0.19873352  0.38248306    -0.53300
O148        O  0.09755692  0.26604959  0.41364072    -0.52400
O149        O  0.43451843  0.10946454  0.52193528    -0.53600
C150        C  0.42931941  0.18686486  0.44420105     0.79000
O151        O  0.35421089  0.21238356  0.54118813    -0.54800
C152        C  0.42639502  0.10153721  0.55648229     0.79000
C153        C  0.47913850  0.22523601  0.55199972     0.81400
Cd154      Cd  0.41578841  0.17750266  0.52403199     1.37500
O155        O  0.43531817  0.15502303  0.46096671    -0.53600
O156        O  0.48192253  0.20247536  0.52380032    -0.52400
C157        C  0.33305379  0.19193428  0.51940892     0.81300
O158        O  0.44661427  0.22656782  0.56874784    -0.54800
O159        O  0.41742523  0.21488398  0.46435327    -0.53300
O160        O  0.41361918  0.12881875  0.57716956    -0.53300
O161        O  0.34937058  0.16438312  0.50212990    -0.52400
O162        O  0.36132677  0.18415377  0.25057170    -0.53600
C163        C  0.43480692  0.18316345  0.32866950     0.79000
O164        O  0.46936843  0.10729050  0.24289397    -0.54800
C165        C  0.35322720  0.17450537  0.21646668     0.79000
C166        C  0.47572214  0.23072716  0.21897878     0.81400
Cd167      Cd  0.42915027  0.16743147  0.24887301     1.37500
O168        O  0.40528129  0.19258478  0.30955170    -0.53600
O169        O  0.45313669  0.23370964  0.24725257    -0.52400
C170        C  0.44420231  0.08528795  0.25782270     0.81300
O171        O  0.47743214  0.19786442  0.20279769    -0.54800
O172        O  0.46220675  0.16699660  0.31087714    -0.53300
O173        O  0.38058635  0.16185668  0.19572357    -0.53300
O174        O  0.41190683  0.10027272  0.26526546    -0.52400
O175        O  0.75458814  0.16809478  0.84363160    -0.53600
C176        C  0.83314185  0.09259826  0.85133256     0.79000
O177        O  0.73868194  0.06314877  0.92458609    -0.54800
C178        C  0.72023336  0.17631205  0.85221351     0.79000
C179        C  0.72492387  0.05257777  0.80050042     0.81400
Cd180      Cd  0.75287381  0.10047174  0.86365791     1.37500
O181        O  0.81604179  0.12436119  0.84599241    -0.53600
O182        O  0.75393349  0.07433108  0.79792957    -0.52400
C183        C  0.75754456  0.08585288  0.94623568     0.81300
O184        O  0.70751445  0.05228073  0.83270825    -0.54800
O185        O  0.81318135  0.06401625  0.86212045    -0.53300
O186        O  0.69960710  0.14924842  0.86560844    -0.53300
O187        O  0.77126810  0.11565266  0.93052310    -0.52400
O188        O  0.02596829  0.09955160  0.91666366    -0.53600
C189        C  0.94875303  0.09654387  0.84414226     0.79000
O190        O  0.03302001  0.17208683  0.80670013    -0.54800
C191        C  0.06099761  0.10588551  0.92403156     0.79000
C192        C  0.05915472  0.04910021  0.80174019     0.81400
Cd193      Cd  0.02878218  0.11238917  0.84806633     1.37500
O194        O  0.96839478  0.08807442  0.87357663    -0.53600
O195        O  0.03267987  0.04525009  0.82631866    -0.52400
C196        C  0.02244116  0.19500755  0.83318627     0.81300
O197        O  0.07352402  0.08264208  0.79830027    -0.54800
O198        O  0.96612013  0.11158640  0.81584019    -0.53300
O199        O  0.08268480  0.11474134  0.89589865    -0.53300
O200        O  0.01804948  0.18056067  0.86626650    -0.52400
O201        O  0.93687586  0.42018619  0.50406916    -0.53600
C202        C  0.92971467  0.34380404  0.58233447     0.79000
O203        O  0.85494536  0.31664766  0.48580598    -0.54800
C204        C  0.92743960  0.42870478  0.46999565     0.79000
C205        C  0.97866775  0.30410993  0.47379978     0.81400
Cd206      Cd  0.91614010  0.35250024  0.50221664     1.37500
O207        O  0.93739442  0.37496956  0.56495342    -0.53600
O208        O  0.98019487  0.32305262  0.50474244    -0.52400
C209        C  0.83344907  0.33780469  0.50654339     0.81300
O210        O  0.94759317  0.30660512  0.45463557    -0.54800
O211        O  0.91603891  0.31621386  0.56271180    -0.53300
O212        O  0.91312932  0.40193207  0.44967433    -0.53300
O213        O  0.84943991  0.36608379  0.52294738    -0.52400
O214        O  0.86226743  0.34296660  0.77869309    -0.53600
C215        C  0.93525554  0.34738325  0.69811416     0.79000
O216        O  0.96691577  0.42404760  0.78860640    -0.54800
C217        C  0.85370089  0.35585151  0.81157263     0.79000
C218        C  0.97671599  0.29965685  0.80731349     0.81400
Cd219      Cd  0.92932750  0.36268721  0.77813722     1.37500
O220        O  0.90505649  0.33931167  0.71683616    -0.53600
O221        O  0.95307751  0.29633737  0.77996780    -0.52400
C222        C  0.94402843  0.44481746  0.76895299     0.81300
O223        O  0.97903189  0.33270596  0.82300972    -0.54800
O224        O  0.96325743  0.36191380  0.71641667    -0.53300
O225        O  0.88055140  0.37144879  0.83087670    -0.53300
O226        O  0.91411452  0.42848990  0.75624079    -0.52400
O227        O  0.21650444  0.62597241  0.68371124    -0.53600
C228        C  0.31218748  0.67609809  0.67314039     0.79000
O229        O  0.32566082  0.55451033  0.69374818    -0.54800
C230        C  0.19820536  0.59512213  0.67700299     0.79000
C231        C  0.27255880  0.58585038  0.58013307     0.81400
Cd232      Cd  0.27835979  0.60079642  0.66261183     1.37500
O233        O  0.27823535  0.66810048  0.68336541    -0.53600
O234        O  0.25958218  0.61606211  0.59572135    -0.52400
C235        C  0.30681951  0.55224284  0.72505136     0.81300
O236        O  0.29077705  0.56275062  0.60189856    -0.54800
O237        O  0.33190157  0.64902564  0.65851358    -0.53300
O238        O  0.21687571  0.56670106  0.66375100    -0.53300
O239        O  0.27606947  0.57147157  0.72687615    -0.52400
O240        O  0.06444000  0.59111812  0.65287507    -0.53600
C241        C  0.96922615  0.60704906  0.60091041     0.79000
O242        O  0.95912226  0.58259952  0.72755182    -0.54800
C243        C  0.08246206  0.59807871  0.68375255     0.79000
C244        C  0.01025106  0.69465296  0.69149711     0.81400
Cd245      Cd  0.00242554  0.61243059  0.67671296     1.37500
O246        O  0.00260657  0.59509529  0.60887269    -0.53600
O247        O  0.02436724  0.67824650  0.66227179    -0.52400
C248        C  0.97232622  0.54877058  0.72268670     0.81300
O249        O  0.99003380  0.67380558  0.71383505    -0.54800
O250        O  0.94948907  0.62090471  0.62839480    -0.53300
O251        O  0.06335390  0.61052032  0.71222517    -0.53300
O252        O  0.99763334  0.54479395  0.69691348    -0.52400
O253        O  0.16963062  0.84762228  0.75094488    -0.53600
C254        C  0.09523836  0.84717841  0.82809067     0.79000
O255        O  0.06280132  0.92345362  0.73864776    -0.54800
C256        C  0.17734566  0.85488760  0.71617938     0.79000
C257        C  0.05478132  0.79930406  0.71910731     0.81400
Cd258      Cd  0.10152479  0.86265174  0.74833577     1.37500
O259        O  0.12473343  0.83733954  0.80912497    -0.53600
O260        O  0.07784362  0.79623178  0.74698582    -0.52400
C261        C  0.08697856  0.94506171  0.75565421     0.81300
O262        O  0.05273098  0.83220778  0.70308149    -0.54800
O263        O  0.06802301  0.86346996  0.81010506    -0.53300
O264        O  0.14970478  0.86562681  0.69478651    -0.53300
O265        O  0.11804988  0.92943592  0.76624901    -0.52400
O266        O  0.09269703  0.91953172  0.02156649    -0.53600
C267        C  0.10059839  0.84368264  0.94374078     0.79000
O268        O  0.17507909  0.81618861  0.03971192    -0.54800
C269        C  0.10242474  0.92811538  0.05555183     0.79000
C270        C  0.05179085  0.80360770  0.05286965     0.81400
Cd271      Cd  0.11395749  0.85207783  0.02372724     1.37500
O272        O  0.09283048  0.87482769  0.96112899    -0.53600
O273        O  0.05085768  0.82051375  0.02074348    -0.52400
C274        C  0.19657897  0.83768704  0.01933395     0.81300
O275        O  0.08217509  0.80804323  0.07276830    -0.54800
O276        O  0.11417467  0.81602435  0.96332914    -0.53300
O277        O  0.11696833  0.90147247  0.07584407    -0.53300
O278        O  0.18062451  0.86623568  0.00339043    -0.52400
O279        O  0.37275764  0.56222014  0.93223200    -0.53600
C280        C  0.42286486  0.46539533  0.92189182     0.79000
O281        O  0.29821396  0.45536451  0.94198620    -0.54800
C282        C  0.34178078  0.58043392  0.92625890     0.79000
C283        C  0.33421045  0.50669691  0.82927880     0.81400
Cd284      Cd  0.34782397  0.50003461  0.91192461     1.37500
O285        O  0.41552277  0.49996607  0.93062300    -0.53600
O286        O  0.36607090  0.51507555  0.84466280    -0.52400
C287        C  0.29982366  0.47166998  0.97476152     0.81300
O288        O  0.30882328  0.49211622  0.85121977    -0.54800
O289        O  0.39513014  0.44522582  0.90913790    -0.53300
O290        O  0.31312837  0.56156183  0.91393232    -0.53300
O291        O  0.32304339  0.49945635  0.97797497    -0.52400
O292        O  0.34831902  0.77463485  0.86229036    -0.53600
C293        C  0.34822331  0.69615282  0.93420542     0.79000
O294        O  0.42362291  0.78029716  0.97184027    -0.54800
C295        C  0.35507166  0.80966715  0.85501568     0.79000
C296        C  0.30134061  0.80723284  0.97786649     0.81400
Cd297      Cd  0.36390068  0.77655855  0.93070137     1.37500
O298        O  0.34060656  0.71582377  0.90452317    -0.53600
O299        O  0.29791641  0.77857475  0.95577328    -0.52400
C300        C  0.44661664  0.77081913  0.94504534     0.81300
O301        O  0.33429808  0.82314276  0.97900271    -0.54800
O302        O  0.36274350  0.71354501  0.96277014    -0.53300
O303        O  0.36542768  0.83081919  0.88303474    -0.53300
O304        O  0.43221142  0.76728007  0.91184828    -0.52400
O305        O  0.66939763  0.68470958  0.27520995    -0.53600
C306        C  0.59418241  0.68346001  0.19681114     0.79000
O307        O  0.56545521  0.60583229  0.28907905    -0.54800
C308        C  0.67736224  0.67511025  0.30933814     0.79000
C309        C  0.55422044  0.73104381  0.30584465     0.81400
Cd310      Cd  0.60152286  0.66790185  0.27657459     1.37500
O311        O  0.62426264  0.69256032  0.21524874    -0.53600
O312        O  0.57851378  0.73466700  0.27908983    -0.52400
C313        C  0.58750985  0.58544259  0.26810627     0.81300
O314        O  0.55115546  0.69768734  0.32072991    -0.54800
O315        O  0.56686736  0.66791982  0.21534415    -0.53300
O316        O  0.64992853  0.66250163  0.32995550    -0.53300
O317        O  0.61635359  0.60229579  0.25372507    -0.52400
O318        O  0.59394421  0.60990707  0.00261572    -0.53600
C319        C  0.59905302  0.68677479  0.08107194     0.79000
O320        O  0.67522844  0.71356809  0.98561307    -0.54800
C321        C  0.60326878  0.60171374  0.96843346     0.79000
C322        C  0.55097322  0.72531300  0.97162721     0.81400
Cd323      Cd  0.61366856  0.67775356  0.00112468     1.37500
O324        O  0.59390583  0.65484230  0.06418964    -0.53600
O325        O  0.54796609  0.70339975  0.00045716    -0.52400
C326        C  0.69633957  0.69242127  0.00675151     0.81300
O327        O  0.58350561  0.72588617  0.95485187    -0.54800
O328        O  0.61044355  0.71506142  0.06099321    -0.53300
O329        O  0.61718096  0.62876523  0.94817305    -0.53300
O330        O  0.67999760  0.66426884  0.02301100    -0.52400
O331        O  0.68501720  0.27718409  0.66326373    -0.53600
C332        C  0.68140918  0.19705967  0.59284315     0.79000
O333        O  0.60587085  0.28570655  0.55510883    -0.54800
C334        C  0.67464419  0.31108979  0.67138020     0.79000
C335        C  0.72839782  0.30748004  0.54757560     0.81400
Cd336      Cd  0.66590297  0.27752379  0.59553373     1.37500
O337        O  0.68941391  0.21712150  0.62217160    -0.53600
O338        O  0.73119994  0.27785315  0.56842315    -0.52400
C339        C  0.58346836  0.27058594  0.57976700     0.81300
O340        O  0.69600920  0.32452605  0.54777829    -0.54800
O341        O  0.66672498  0.21412407  0.56413655    -0.53300
O342        O  0.66059760  0.33105969  0.64414479    -0.53300
O343        O  0.59830553  0.26152455  0.61170814    -0.52400
O344        O  0.61508238  0.99958132  0.59270445    -0.53600
C345        C  0.68750440  0.08119822  0.60135485     0.79000
O346        O  0.72219362  0.99265088  0.67401819    -0.54800
C347        C  0.60685664  0.96613110  0.60451169     0.79000
C348        C  0.72923125  0.97151941  0.55074932     0.81400
Cd349      Cd  0.68207173  0.00042525  0.61412196     1.37500
O350        O  0.65653825  0.06293816  0.59537150    -0.53600
O351        O  0.70823018  0.00109798  0.54847466    -0.52400
C352        C  0.69694799  0.00664982  0.69649975     0.81300
O353        O  0.72929279  0.95394857  0.58290102    -0.54800
O354        O  0.71633020  0.06224533  0.61313678    -0.53300
O355        O  0.63378682  0.94691606  0.62008433    -0.53300
O356        O  0.66462468  0.01446338  0.68177685    -0.52400
O357        O  0.84706517  0.75251511  0.16296339    -0.53600
C358        C  0.84801900  0.83242283  0.09079234     0.79000
O359        O  0.92514615  0.74452042  0.05534144    -0.54800
C360        C  0.85618546  0.71806758  0.17032457     0.79000
C361        C  0.80145961  0.72183594  0.04851759     0.81400
Cd362      Cd  0.86459695  0.75225744  0.09505428     1.37500
O363        O  0.84343452  0.81345484  0.12153395    -0.53600
O364        O  0.79784816  0.74889762  0.07250759    -0.52400
C365        C  0.94725626  0.75911774  0.08056625     0.81300
O366        O  0.83488316  0.70723292  0.04528015    -0.54800
O367        O  0.85992459  0.81441737  0.06138294    -0.53300
O368        O  0.86881753  0.69789101  0.14253556    -0.53300
O369        O  0.93199189  0.76782590  0.11239480    -0.52400
O370        O  0.91679106  0.02791129  0.09656386    -0.53600
C371        C  0.84188560  0.94801397  0.09918644     0.79000
O372        O  0.80880571  0.03555555  0.17386513    -0.54800
C373        C  0.92375858  0.06273876  0.10464367     0.79000
C374        C  0.80168486  0.05751838  0.05062394     0.81400
Cd375      Cd  0.84867967  0.02835457  0.11376810     1.37500
O376        O  0.87303359  0.96596230  0.09324427    -0.53600
O377        O  0.82467470  0.02953848  0.04742518    -0.52400
C378        C  0.83445068  0.02223487  0.19627787     0.81300
O379        O  0.80001482  0.07371127  0.08344796    -0.54800
O380        O  0.81348511  0.96708401  0.11177360    -0.53300
O381        O  0.89571514  0.08305555  0.11641179    -0.53300
O382        O  0.86685178  0.01504767  0.18141479    -0.52400
O383        O  0.50325125  0.93063513  0.41930491    -0.53600
C384        C  0.58165845  0.93375151  0.34503734     0.79000
O385        O  0.49042609  0.85697404  0.31196880    -0.54800
C386        C  0.46857544  0.92242020  0.42634399     0.79000
C387        C  0.47204476  0.98163153  0.30537962     0.81400
Cd388      Cd  0.50192018  0.91753101  0.35081482     1.37500
O389        O  0.56297252  0.94083877  0.37548003    -0.53600
O390        O  0.49698806  0.98549739  0.33152406    -0.52400
C391        C  0.50940508  0.83536423  0.33462747     0.81300
O392        O  0.45907794  0.94778783  0.30002357    -0.54800
O393        O  0.56336773  0.92017489  0.31655608    -0.53300
O394        O  0.44774344  0.91214327  0.39810360    -0.53300
O395        O  0.52233061  0.85093704  0.36483704    -0.52400
O396        O  0.77639709  0.86092846  0.34305955    -0.53600
C397        C  0.69735539  0.93687063  0.35053067     0.79000
O398        O  0.78990859  0.96640008  0.42394980    -0.54800
C399        C  0.81081441  0.85300720  0.35171372     0.79000
C400        C  0.80658545  0.97621965  0.30019981     0.81400
Cd401      Cd  0.77762414  0.92854201  0.36309247     1.37500
O402        O  0.71450372  0.90541434  0.34374795    -0.53600
O403        O  0.77855795  0.95331282  0.29687259    -0.52400
C404        C  0.77252856  0.94273759  0.44581870     0.81300
O405        O  0.82265084  0.97771942  0.33306273    -0.54800
O406        O  0.71726578  0.96488451  0.36273219    -0.53300
O407        O  0.83111599  0.88015424  0.36544123    -0.53300
O408        O  0.76054435  0.91206271  0.43029901    -0.52400
C409        C  0.62227810  0.93919846  0.34371920    -0.09100
C410        C  0.65676546  0.94005260  0.34556461    -0.10700
C411        C  0.81921306  0.99860279  0.26730853    -0.09100
C412        C  0.82665008  0.01265748  0.23613996    -0.10700
C413        C  0.84146391  0.87299940  0.09010505    -0.09100
C414        C  0.83953542  0.90745202  0.09290416    -0.10700
C415        C  0.76403610  0.95104093  0.48587123    -0.09100
C416        C  0.75083732  0.95873977  0.51737056    -0.10700
C417        C  0.68930748  0.12190691  0.59575257    -0.09100
C418        C  0.68741697  0.15637321  0.59294649    -0.10700
C419        C  0.73653135  0.70081958  0.01434363    -0.09100
C420        C  0.76819852  0.70865709  0.02700403    -0.10700
C421        C  0.53204237  0.76415742  0.31832305    -0.09100
C422        C  0.51841007  0.79551507  0.32588061    -0.10700
C423        C  0.59357355  0.69006140  0.12164893    -0.09100
C424        C  0.59203575  0.68900174  0.15618456    -0.10700
C425        C  0.48665352  0.76143932  0.95214923    -0.09100
C426        C  0.51802988  0.74759563  0.95902862    -0.10700
C427        C  0.33989709  0.62106805  0.93215572    -0.09100
C428        C  0.34195256  0.65553129  0.93468078    -0.10700
C429        C  0.01871359  0.78172146  0.06577879    -0.09100
C430        C  0.98727900  0.76817766  0.07297714    -0.10700
C431        C  0.26831057  0.82086390  0.99941724    -0.09100
C432        C  0.23674735  0.82910387  0.01203536    -0.10700
C433        C  0.09537656  0.84055328  0.90317299    -0.09100
C434        C  0.09364071  0.84160830  0.86868058    -0.10700
C435        C  0.01921994  0.73461873  0.69956359    -0.09100
C436        C  0.03280475  0.76607081  0.70671606    -0.10700
C437        C  0.31944642  0.53005824  0.75805208    -0.09100
C438        C  0.32668617  0.51618388  0.78934109    -0.10700
C439        C  0.15768900  0.59294219  0.68319315    -0.09100
C440        C  0.12321125  0.59365492  0.68550457    -0.10700
C441        C  0.95229984  0.48452271  0.75897575    -0.09100
C442        C  0.95978705  0.51566858  0.74483997    -0.10700
C443        C  0.76156195  0.32099136  0.52610918    -0.09100
C444        C  0.79322468  0.32917562  0.51365834    -0.10700
C445        C  0.93508051  0.34063813  0.62293883    -0.09100
C446        C  0.93685956  0.34177728  0.65746269    -0.10700
C447        C  0.07894925  0.98490135  0.76529987    -0.09100
C448        C  0.07169063  0.01611423  0.77941041    -0.10700
C449        C  0.99906871  0.26652181  0.81936691    -0.09100
C450        C  0.01292701  0.23504020  0.82592080    -0.10700
C451        C  0.71258043  0.03026829  0.76745640    -0.09100
C452        C  0.70510065  0.01623271  0.73629122    -0.10700
C453        C  0.76583697  0.07741596  0.98624654    -0.09100
C454        C  0.77942968  0.06995098  0.01760033    -0.10700
C455        C  0.90815436  0.09086828  0.84375623    -0.09100
C456        C  0.87371564  0.08966944  0.84614890    -0.10700
C457        C  0.45971942  0.01479875  0.28320875    -0.09100
C458        C  0.45234821  0.04577696  0.26865172    -0.10700
C459        C  0.51229375  0.24752648  0.56412824    -0.09100
C460        C  0.54361427  0.26132297  0.57143644    -0.10700
C461        C  0.43630257  0.18910449  0.36920190    -0.09100
C462        C  0.43457365  0.19032562  0.40368146    -0.10700
C463        C  0.26129703  0.20894720  0.49954568    -0.09100
C464        C  0.29287102  0.20062472  0.51212637    -0.10700
C465        C  0.04319319  0.26841786  0.45424173    -0.09100
C466        C  0.01178330  0.28204042  0.46135094    -0.10700
C467        C  0.25123738  0.56995650  0.50853826    -0.09100
C468        C  0.26436830  0.57747714  0.54007825    -0.10700
C469        C  0.18779780  0.37377973  0.43464109    -0.09100
C470        C  0.18995836  0.40824579  0.43226144    -0.10700
C471        C  0.21013387  0.49806739  0.25848734    -0.09100
C472        C  0.20269606  0.51198350  0.28973443    -0.10700
C473        C  0.27740700  0.45947211  0.00778641    -0.09100
C474        C  0.26392962  0.45209728  0.03922516    -0.10700
C475        C  0.51092059  0.29562340  0.19926922    -0.09100
C476        C  0.49749392  0.26406051  0.20636378    -0.10700
C477        C  0.57935791  0.54559537  0.25848540    -0.09100
C478        C  0.57173471  0.51442040  0.24444841    -0.10700
C479        C  0.37208552  0.43842869  0.18013256    -0.09100
C480        C  0.40658671  0.43781940  0.18237276    -0.10700
C481        C  0.35142954  0.82387259  0.81620390    -0.09100
C482        C  0.34796370  0.83075086  0.78222647    -0.10700
C483        C  0.25028374  0.84733603  0.69686792    -0.09100
C484        C  0.21622252  0.85120043  0.70259576    -0.10700
C485        C  0.33365261  0.74855086  0.68182004    -0.09100
C486        C  0.32671022  0.71468696  0.67752805    -0.10700
C487        C  0.44876044  0.92812439  0.49925744    -0.09100
C488        C  0.45450291  0.92470302  0.46514782    -0.10700
C489        C  0.53407277  0.94520648  0.59742041    -0.09100
C490        C  0.56809676  0.95176351  0.60096181    -0.10700
C491        C  0.43543359  0.02921756  0.57860545    -0.09100
C492        C  0.43117575  0.06290398  0.57080360    -0.10700
C493        C  0.38206576  0.88023503  0.65186368    -0.09100
C494        C  0.40228736  0.90005559  0.63171291    -0.10700
C495        C  0.68229550  0.33203700  0.74423037    -0.09100
C496        C  0.67839550  0.32525130  0.71025008    -0.10700
C497        C  0.78047527  0.34953655  0.83033918    -0.09100
C498        C  0.81467386  0.35317544  0.82511290    -0.10700
C499        C  0.70621435  0.21511112  0.84744621    -0.09100
C500        C  0.69916778  0.24901464  0.84331760    -0.10700
C501        C  0.59422037  0.52927695  0.94649368    -0.09100
C502        C  0.59854939  0.56303103  0.95409127    -0.10700
C503        C  0.49557684  0.44438377  0.92951762    -0.09100
C504        C  0.46153031  0.45081036  0.92580518    -0.10700
C505        C  0.58111821  0.42968800  0.02783808    -0.09100
C506        C  0.57533383  0.42659367  0.06201503    -0.10700
C507        C  0.64786748  0.37938198  0.87540808    -0.09100
C508        C  0.62751419  0.39909732  0.89561244    -0.10700
C509        C  0.83267943  0.78067457  0.34203315    -0.09100
C510        C  0.82530220  0.81444466  0.34656500    -0.10700
C511        C  0.85261519  0.70352694  0.20901414    -0.09100
C512        C  0.84889181  0.69675869  0.24298829    -0.10700
C513        C  0.75046487  0.68155449  0.32854398    -0.09100
C514        C  0.71631399  0.67812816  0.32296428    -0.10700
C515        C  0.94953741  0.60210658  0.52775374    -0.09100
C516        C  0.95543194  0.60518025  0.56191061    -0.10700
C517        C  0.93648252  0.50117049  0.44803516    -0.09100
C518        C  0.93233041  0.46743596  0.45582275    -0.10700
C519        C  0.03449296  0.58587517  0.42919287    -0.09100
C520        C  0.06844985  0.57920510  0.42542136    -0.10700
C521        C  0.88234368  0.64992733  0.37459538    -0.09100
C522        C  0.90250574  0.63039983  0.39515387    -0.10700
C523        C  0.96227984  0.07762163  0.10091395    -0.09100
C524        C  0.99615119  0.08467491  0.09703084    -0.10700
C525        C  0.09769044  0.96678286  0.06971425    -0.09100
C526        C  0.09380650  0.00047025  0.07762065    -0.10700
C527        C  0.07455265  0.10331020  0.96308681    -0.09100
C528        C  0.08034723  0.10031809  0.99727757    -0.10700
C529        C  0.28007659  0.18121294  0.19726438    -0.09100
C530        C  0.31420790  0.17761135  0.20296696    -0.10700
C531        C  0.18092285  0.19806161  0.28168037    -0.09100
C532        C  0.17736911  0.20517683  0.31565892    -0.10700
C533        C  0.20385415  0.31440124  0.17801038    -0.09100
C534        C  0.19715184  0.28046791  0.18217022    -0.10700
C535        C  0.12842257  0.12987395  0.12941940    -0.09100
C536        C  0.14858843  0.14934202  0.15006466    -0.10700
loop_ 
_geom_bond_atom_site_label_1 
_geom_bond_atom_site_label_2 
_geom_bond_distance 
_geom_bond_site_symmetry_2 
_ccdc_geom_bond_type 
C1            C2   1.538       .  S
C1            C7   1.535       .  S
C1            C5   1.536       .  S
C1          C536   1.469       .  S
C2            H9   1.086       .  S
C2            C3   1.366       .  D
C3            C4   1.538       .  S
C3          C531   1.448       .  S
C4            C8   1.538       .  S
C4            C6   1.537       .  S
C4           H10   1.112       .  S
C5           H11   1.085       .  S
C5            C6   1.364       .  D
C6          C534   1.443       .  S
C7           H12   1.084       .  S
C7            C8   1.363       .  D
C8          C529   1.444       .  S
C13          C14   1.536       .  S
C13          C19   1.537       .  S
C13          C17   1.537       .  S
C13         C535   1.469       .  S
C14          H21   1.085       .  S
C14          C15   1.364       .  D
C15          C16   1.537       .  S
C15         C524   1.444   1_455  S
C16          C20   1.536       .  S
C16          C18   1.535       .  S
C16          H22   1.112       .  S
C17          H23   1.085       .  S
C17          C18   1.364       .  D
C18         C526   1.442       .  S
C19          H24   1.085       .  S
C19          C20   1.364       .  D
C20         C528   1.443   1_554  S
C25          C26   1.536       .  S
C25          C31   1.536       .  S
C25          C29   1.537       .  S
C25         C522   1.468       .  S
C26          H33   1.085       .  S
C26          C27   1.364       .  D
C27          C28   1.538       .  S
C27         C519   1.444   1_655  S
C28          C32   1.536       .  S
C28          C30   1.537       .  S
C28          H34   1.112       .  S
C29          H35   1.085       .  S
C29          C30   1.365       .  D
C30         C517   1.445       .  S
C31          H36   1.084       .  S
C31          C32   1.364       .  D
C32         C515   1.443       .  S
C37          C38   1.535       .  S
C37          C43   1.537       .  S
C37          C41   1.536       .  S
C37         C521   1.468       .  S
C38          H45   1.085       .  S
C38          C39   1.363       .  D
C39          C40   1.537       .  S
C39         C513   1.442       .  S
C40          C44   1.537       .  S
C40          C42   1.538       .  S
C40          H46   1.112       .  S
C41          H47   1.085       .  S
C41          C42   1.364       .  D
C42         C512   1.445       .  S
C43          H48   1.085       .  S
C43          C44   1.364       .  D
C44         C509   1.445       .  S
C49          C50   1.536       .  S
C49          C55   1.536       .  S
C49          C53   1.537       .  S
C49         C508   1.469       .  S
C50          H57   1.084       .  S
C50          C51   1.364       .  D
C51          C52   1.538       .  S
C51         C503   1.446       .  S
C52          C56   1.537       .  S
C52          C54   1.537       .  S
C52          H58   1.112       .  S
C53          H59   1.086       .  S
C53          C54   1.364       .  D
C54         C501   1.445       .  S
C55          H60   1.084       .  S
C55          C56   1.364       .  D
C56         C505   1.443   1_556  S
C61          C62   1.537       .  S
C61          C67   1.535       .  S
C61          C65   1.537       .  S
C61         C507   1.468       .  S
C62          H69   1.085       .  S
C62          C63   1.365       .  D
C63          C64   1.539       .  S
C63         C495   1.447       .  S
C64          C68   1.539       .  S
C64          C66   1.537       .  S
C64          H70   1.112       .  S
C65          H71   1.086       .  S
C65          C66   1.365       .  D
C66         C500   1.445       .  S
C67          H72   1.084       .  S
C67          C68   1.363       .  D
C68         C497   1.443       .  S
C73          C74   1.536       .  S
C73          C79   1.535       .  S
C73          C77   1.536       .  S
C73         C494   1.465       .  S
C74          H81   1.084       .  S
C74          C75   1.364       .  D
C75          C76   1.538       .  S
C75         C489   1.445       .  S
C76          C80   1.537       .  S
C76          C78   1.537       .  S
C76          H82   1.112       .  S
C77          H83   1.086       .  S
C77          C78   1.364       .  D
C78         C491   1.443   1_565  S
C79          H84   1.085       .  S
C79          C80   1.362       .  D
C80         C487   1.441       .  S
C85          C86   1.536       .  S
C85          C91   1.534       .  S
C85          C89   1.536       .  S
C85         C493   1.465       .  S
C86          H93   1.085       .  S
C86          C87   1.364       .  D
C87          C88   1.538       .  S
C87         C482   1.445       .  S
C88          C92   1.537       .  S
C88          C90   1.537       .  S
C88          H94   1.112       .  S
C89          H95   1.086       .  S
C89          C90   1.364       .  D
C90         C485   1.443       .  S
C91          H96   1.084       .  S
C91          C92   1.363       .  D
C92         C483   1.441       .  S
O97         C100   1.262       .  A
O97        Cd102   2.427       .  S
C98         O107   1.268       .  A
C98         O103   1.260       .  A
C98         C506   1.436       .  S
O99         C105   1.269       .  A
O99        Cd102   2.539       .  S
C100        O108   1.264       .  A
C100        C480   1.424       .  S
C101        O106   1.269       .  A
C101        O104   1.261       .  A
C101        C475   1.448       .  S
Cd102       O109   2.452       .  S
Cd102       O108   2.450       .  S
Cd102       O107   2.503       .  S
Cd102       O103   2.424       .  S
Cd102       O106   2.523       .  S
Cd102       O104   2.467       .  S
C105        O109   1.260       .  A
C105        C478   1.448       .  S
O110        C113   1.261       .  A
O110       Cd115   2.439       .  S
C111        O120   1.265       .  A
C111        O116   1.264       .  A
C111        C479   1.425       .  S
O112        C118   1.269       .  A
O112       Cd115   2.527       .  S
C113        O121   1.267       .  A
C113        C533   1.437       .  S
C114        O119   1.269       .  A
C114        O117   1.260       .  A
C114        C471   1.448       .  S
Cd115       O122   2.464       .  S
Cd115       O121   2.503       .  S
Cd115       O120   2.443       .  S
Cd115       O116   2.428       .  S
Cd115       O119   2.534       .  S
Cd115       O117   2.454       .  S
C118        O122   1.260       .  A
C118        C474   1.447       .  S
O123        C126   1.261       .  A
O123       Cd128   2.433       .  S
C124        O133   1.264       .  A
C124        O129   1.263       .  A
C124        C470   1.424       .  S
O125        C131   1.269       .  A
O125       Cd128   2.519       .  S
C126        O134   1.268       .  A
C126        C520   1.438       .  S
C127        O132   1.270       .  A
C127        O130   1.260       .  A
C127        C467   1.447       .  S
Cd128       O135   2.468       .  S
Cd128       O134   2.506       .  S
Cd128       O133   2.447       .  S
Cd128       O129   2.422       .  S
Cd128       O132   2.538       .  S
Cd128       O130   2.445       .  S
C131        O135   1.261       .  A
C131        C472   1.448       .  S
O136        C139   1.261       .  A
O136       Cd141   2.445       .  S
C137        O146   1.264       .  A
C137        O142   1.263       .  A
C137        C469   1.424       .  S
O138        C144   1.268       .  A
O138       Cd141   2.524       .  S
C139        O147   1.268       .  A
C139        C532   1.442       .  S
C140        O145   1.270       .  A
C140        O143   1.260       .  A
C140        C463   1.448       .  S
Cd141       O148   2.473       .  S
Cd141       O147   2.512       .  S
Cd141       O146   2.449       .  S
Cd141       O142   2.428       .  S
Cd141       O145   2.543       .  S
Cd141       O143   2.454       .  S
C144        O148   1.260       .  A
C144        C465   1.447       .  S
O149        C152   1.261       .  A
O149       Cd154   2.446       .  S
C150        O159   1.265       .  A
C150        O155   1.264       .  A
C150        C462   1.422       .  S
O151        C157   1.269       .  A
O151       Cd154   2.525       .  S
C152        O160   1.266       .  A
C152        C492   1.437       .  S
C153        O158   1.270       .  A
C153        O156   1.260       .  A
C153        C459   1.448       .  S
Cd154       O161   2.468       .  S
Cd154       O160   2.499       .  S
Cd154       O159   2.441       .  S
Cd154       O155   2.418       .  S
Cd154       O158   2.537       .  S
Cd154       O156   2.451       .  S
C157        O161   1.261       .  A
C157        C464   1.448       .  S
O162        C165   1.260       .  A
O162       Cd167   2.424       .  S
C163        O172   1.264       .  A
C163        O168   1.263       .  A
C163        C461   1.421       .  S
O164        C170   1.269       .  A
O164       Cd167   2.516       .  S
C165        O173   1.269       .  A
C165        C530   1.436       .  S
C166        O171   1.270       .  A
C166        O169   1.259       .  A
C166        C476   1.447       .  S
Cd167       O174   2.468       .  S
Cd167       O173   2.504       .  S
Cd167       O172   2.437       .  S
Cd167       O168   2.423       .  S
Cd167       O171   2.543       .  S
Cd167       O169   2.442       .  S
C170        O174   1.261       .  A
C170        C458   1.447       .  S
O175        C178   1.261       .  A
O175       Cd180   2.444       .  S
C176        O185   1.265       .  A
C176        O181   1.264       .  A
C176        C456   1.422       .  S
O177        C183   1.269       .  A
O177       Cd180   2.525       .  S
C178        O186   1.267       .  A
C178        C499   1.439       .  S
C179        O184   1.269       .  A
C179        O182   1.260       .  A
C179        C451   1.447       .  S
Cd180       O187   2.461       .  S
Cd180       O186   2.505       .  S
Cd180       O185   2.444       .  S
Cd180       O181   2.421       .  S
Cd180       O184   2.532       .  S
Cd180       O182   2.452       .  S
C183        O187   1.260       .  A
C183        C453   1.447       .  S
O188        C191   1.261       .  A
O188       Cd193   2.421       .  S
C189        O198   1.264       .  A
C189        O194   1.262       .  A
C189        C455   1.422       .  S
O190        C196   1.268       .  A
O190       Cd193   2.521       .  S
C191        O199   1.269       .  A
C191        C527   1.436       .  S
C192        O197   1.270       .  A
C192        O195   1.260       .  A
C192        C448   1.447       .  S
Cd193       O200   2.472       .  S
Cd193       O199   2.501       .  S
Cd193       O198   2.444   1_455  S
Cd193       O194   2.424   1_455  S
Cd193       O197   2.539       .  S
Cd193       O195   2.448       .  S
C196        O200   1.260       .  A
C196        C450   1.448       .  S
O201        C204   1.261       .  A
O201       Cd206   2.453       .  S
C202        O211   1.265       .  A
C202        O207   1.265       .  A
C202        C445   1.424       .  S
O203        C209   1.269       .  A
O203       Cd206   2.524       .  S
C204        O212   1.266       .  A
C204        C518   1.439       .  S
C205        O210   1.269       .  A
C205        O208   1.259       .  A
C205        C466   1.446   1_655  S
Cd206       O213   2.468       .  S
Cd206       O212   2.502       .  S
Cd206       O211   2.445       .  S
Cd206       O207   2.425       .  S
Cd206       O210   2.537       .  S
Cd206       O208   2.446       .  S
C209        O213   1.261       .  A
C209        C444   1.448       .  S
O214        C217   1.260       .  A
O214       Cd219   2.424       .  S
C215        O224   1.265       .  A
C215        O220   1.263       .  A
C215        C446   1.424       .  S
O216        C222   1.270       .  A
O216       Cd219   2.520       .  S
C217        O225   1.268       .  A
C217        C498   1.436       .  S
C218        O223   1.270       .  A
C218        O221   1.259       .  A
C218        C449   1.447       .  S
Cd219       O226   2.460       .  S
Cd219       O225   2.509       .  S
Cd219       O224   2.442       .  S
Cd219       O220   2.425       .  S
Cd219       O223   2.544       .  S
Cd219       O221   2.442       .  S
C222        O226   1.261       .  A
C222        C441   1.447       .  S
O227        C230   1.264       .  A
O227       Cd232   2.429       .  S
C228        O237   1.267       .  A
C228        O233   1.261       .  A
C228        C486   1.436       .  S
O229        C235   1.269       .  A
O229       Cd232   2.536       .  S
C230        O238   1.265       .  A
C230        C439   1.424       .  S
C231        O236   1.269       .  A
C231        O234   1.261       .  A
C231        C468   1.447       .  S
Cd232       O239   2.450       .  S
Cd232       O238   2.438       .  S
Cd232       O237   2.502       .  S
Cd232       O233   2.440       .  S
Cd232       O236   2.520       .  S
Cd232       O234   2.466       .  S
C235        O239   1.259       .  A
C235        C437   1.446       .  S
O240        C243   1.263       .  A
O240       Cd245   2.420       .  S
C241        O250   1.268       .  A
C241        O246   1.260   1_655  A
C241        C516   1.436       .  S
O242        C248   1.269       .  A
O242       Cd245   2.536   1_655  S
C243        O251   1.265       .  A
C243        C440   1.423       .  S
C244        O249   1.270   1_455  A
C244        O247   1.261       .  A
C244        C435   1.446       .  S
Cd245       O252   2.451   1_455  S
Cd245       O251   2.447       .  S
Cd245       O250   2.503   1_455  S
Cd245       O246   2.427       .  S
Cd245       O249   2.522   1_455  S
Cd245       O247   2.455       .  S
C248        O252   1.260       .  A
C248        C442   1.447       .  S
O253        C256   1.260       .  A
O253       Cd258   2.421       .  S
C254        O263   1.264       .  A
C254        O259   1.263       .  A
C254        C434   1.421       .  S
O255        C261   1.269       .  A
O255       Cd258   2.521       .  S
C256        O264   1.268       .  A
C256        C484   1.434       .  S
C257        O262   1.270       .  A
C257        O260   1.259       .  A
C257        C436   1.446       .  S
Cd258       O265   2.463       .  S
Cd258       O264   2.500       .  S
Cd258       O263   2.436       .  S
Cd258       O259   2.421       .  S
Cd258       O262   2.537       .  S
Cd258       O260   2.443       .  S
C261        O265   1.261       .  A
C261        C447   1.447       .  S
O266        C269   1.261       .  A
O266       Cd271   2.451       .  S
C267        O276   1.265       .  A
C267        O272   1.265       .  A
C267        C433   1.422       .  S
O268        C274   1.269       .  A
O268       Cd271   2.520       .  S
C269        O277   1.265       .  A
C269        C525   1.436       .  S
C270        O275   1.269       .  A
C270        O273   1.259       .  A
C270        C429   1.446       .  S
Cd271       O278   2.467       .  S
Cd271       O277   2.491       .  S
Cd271       O276   2.438   1_554  S
Cd271       O272   2.423   1_554  S
Cd271       O275   2.536       .  S
Cd271       O273   2.449       .  S
C274        O278   1.261       .  A
C274        C432   1.447       .  S
O279        C282   1.263       .  A
O279       Cd284   2.425       .  S
C280        O289   1.268       .  A
C280        O285   1.261       .  A
C280        C504   1.440       .  S
O281        C287   1.270       .  A
O281       Cd284   2.538       .  S
C282        O290   1.264       .  A
C282        C427   1.424       .  S
C283        O288   1.268       .  A
C283        O286   1.261       .  A
C283        C438   1.447       .  S
Cd284       O291   2.446       .  S
Cd284       O290   2.449       .  S
Cd284       O289   2.511       .  S
Cd284       O285   2.436       .  S
Cd284       O288   2.517       .  S
Cd284       O286   2.472       .  S
C287        O291   1.260       .  A
C287        C473   1.447   1_556  S
O292        C295   1.261       .  A
O292       Cd297   2.434       .  S
C293        O302   1.264       .  A
C293        O298   1.262       .  A
C293        C428   1.424       .  S
O294        C300   1.268       .  A
O294       Cd297   2.519       .  S
C295        O303   1.269       .  A
C295        C481   1.438       .  S
C296        O301   1.270       .  A
C296        O299   1.259       .  A
C296        C431   1.447       .  S
Cd297       O304   2.479       .  S
Cd297       O303   2.503       .  S
Cd297       O302   2.450       .  S
Cd297       O298   2.429       .  S
Cd297       O301   2.542       .  S
Cd297       O299   2.449       .  S
C300        O304   1.261       .  A
C300        C425   1.447       .  S
O305        C308   1.260       .  A
O305       Cd310   2.426       .  S
C306        O315   1.265       .  A
C306        O311   1.264       .  A
C306        C424   1.423       .  S
O307        C313   1.270       .  A
O307       Cd310   2.525       .  S
C308        O316   1.268       .  A
C308        C514   1.435       .  S
C309        O314   1.270       .  A
C309        O312   1.259       .  A
C309        C421   1.447       .  S
Cd310       O317   2.461       .  S
Cd310       O316   2.506       .  S
Cd310       O315   2.440       .  S
Cd310       O311   2.423       .  S
Cd310       O314   2.542       .  S
Cd310       O312   2.448       .  S
C313        O317   1.261       .  A
C313        C477   1.448       .  S
O318        C321   1.261   1_554  A
O318       Cd323   2.448       .  S
C319        O328   1.265       .  A
C319        O324   1.264       .  A
C319        C423   1.424       .  S
O320        C326   1.269   1_556  A
O320       Cd323   2.527   1_556  S
C321        O329   1.266       .  A
C321        C502   1.439       .  S
C322        O327   1.270       .  A
C322        O325   1.259   1_556  A
C322        C426   1.447       .  S
Cd323       O330   2.467       .  S
Cd323       O329   2.503   1_554  S
Cd323       O328   2.448       .  S
Cd323       O324   2.425       .  S
Cd323       O327   2.539   1_554  S
Cd323       O325   2.446       .  S
C326        O330   1.261       .  A
C326        C419   1.448       .  S
O331        C334   1.260       .  A
O331       Cd336   2.440       .  S
C332        O341   1.265       .  A
C332        O337   1.263       .  A
C332        C418   1.425       .  S
O333        C339   1.268       .  A
O333       Cd336   2.526       .  S
C334        O342   1.268       .  A
C334        C496   1.440       .  S
C335        O340   1.269       .  A
C335        O338   1.259       .  A
C335        C443   1.448       .  S
Cd336       O343   2.474       .  S
Cd336       O342   2.513       .  S
Cd336       O341   2.451       .  S
Cd336       O337   2.428       .  S
Cd336       O340   2.546       .  S
Cd336       O338   2.452       .  S
C339        O343   1.261       .  A
C339        C460   1.448       .  S
O344        C347   1.261       .  A
O344       Cd349   2.440   1_565  S
C345        O354   1.264       .  A
C345        O350   1.264       .  A
C345        C417   1.425       .  S
O346        C352   1.269   1_565  A
O346       Cd349   2.514   1_565  S
C347        O355   1.268       .  A
C347        C490   1.439       .  S
C348        O353   1.270       .  A
C348        O351   1.260   1_565  A
C348        C416   1.448       .  S
Cd349       O356   2.471       .  S
Cd349       O355   2.506   1_545  S
Cd349       O354   2.449       .  S
Cd349       O350   2.428       .  S
Cd349       O353   2.539   1_545  S
Cd349       O351   2.450       .  S
C352        O356   1.261       .  A
C352        C452   1.447       .  S
O357        C360   1.261       .  A
O357       Cd362   2.432       .  S
C358        O367   1.265       .  A
C358        O363   1.262       .  A
C358        C413   1.424       .  S
O359        C365   1.268       .  A
O359       Cd362   2.525       .  S
C360        O368   1.268       .  A
C360        C511   1.438       .  S
C361        O366   1.270       .  A
C361        O364   1.259       .  A
C361        C420   1.448       .  S
Cd362       O369   2.473       .  S
Cd362       O368   2.505       .  S
Cd362       O367   2.455       .  S
Cd362       O363   2.424       .  S
Cd362       O366   2.544       .  S
Cd362       O364   2.447       .  S
C365        O369   1.260       .  A
C365        C430   1.447       .  S
O370        C373   1.262       .  A
O370       Cd375   2.437       .  S
C371        O380   1.264       .  A
C371        O376   1.263       .  A
C371        C414   1.424       .  S
O372        C378   1.268       .  A
O372       Cd375   2.513       .  S
C373        O381   1.268       .  A
C373        C523   1.438       .  S
C374        O379   1.270       .  A
C374        O377   1.260       .  A
C374        C454   1.447       .  S
Cd375       O382   2.472       .  S
Cd375       O381   2.502       .  S
Cd375       O380   2.449   1_545  S
Cd375       O376   2.427   1_545  S
Cd375       O379   2.535       .  S
Cd375       O377   2.447       .  S
C378        O382   1.261       .  A
C378        C412   1.447       .  S
O383        C386   1.260       .  A
O383       Cd388   2.418       .  S
C384        O393   1.264       .  A
C384        O389   1.263       .  A
C384        C409   1.422       .  S
O385        C391   1.269       .  A
O385       Cd388   2.524       .  S
C386        O394   1.268       .  A
C386        C488   1.433       .  S
C387        O392   1.269       .  A
C387        O390   1.260       .  A
C387        C457   1.447   1_565  S
Cd388       O395   2.461       .  S
Cd388       O394   2.501       .  S
Cd388       O393   2.442       .  S
Cd388       O389   2.422       .  S
Cd388       O392   2.532       .  S
Cd388       O390   2.453       .  S
C391        O395   1.261       .  A
C391        C422   1.447       .  S
O396        C399   1.261       .  A
O396       Cd401   2.443       .  S
C397        O406   1.264       .  A
C397        O402   1.264       .  A
C397        C410   1.423       .  S
O398        C404   1.269       .  A
O398       Cd401   2.521       .  S
C399        O407   1.267       .  A
C399        C510   1.438       .  S
C400        O405   1.269       .  A
C400        O403   1.260       .  A
C400        C411   1.447       .  S
Cd401       O408   2.471       .  S
Cd401       O407   2.502       .  S
Cd401       O406   2.443       .  S
Cd401       O402   2.426       .  S
Cd401       O405   2.534       .  S
Cd401       O403   2.451       .  S
C404        O408   1.261       .  A
C404        C415   1.448       .  S
C409        C410   1.198       .  T
C411        C412   1.213   1_565  T
C413        C414   1.199       .  T
C415        C416   1.214       .  T
C417        C418   1.200       .  T
C419        C420   1.214       .  T
C421        C422   1.213       .  T
C423        C424   1.199       .  T
C425        C426   1.213       .  T
C427        C428   1.199       .  T
C429        C430   1.213   1_455  T
C431        C432   1.213   1_556  T
C433        C434   1.198       .  T
C435        C436   1.213       .  T
C437        C438   1.213       .  T
C439        C440   1.199       .  T
C441        C442   1.213       .  T
C443        C444   1.214       .  T
C445        C446   1.199       .  T
C447        C448   1.213   1_565  T
C449        C450   1.213   1_655  T
C451        C452   1.213       .  T
C453        C454   1.213   1_556  T
C455        C456   1.198       .  T
C457        C458   1.213       .  T
C459        C460   1.214       .  T
C461        C462   1.198       .  T
C463        C464   1.214       .  T
C465        C466   1.213       .  T
C467        C468   1.213       .  T
C469        C470   1.199       .  T
C471        C472   1.213       .  T
C473        C474   1.213       .  T
C475        C476   1.213       .  T
C477        C478   1.214       .  T
C479        C480   1.199       .  T
C481        C482   1.208       .  T
C483        C484   1.205       .  T
C485        C486   1.207       .  T
C487        C488   1.205       .  T
C489        C490   1.208       .  T
C491        C492   1.207       .  T
C493        C494   1.205       .  T
C495        C496   1.209       .  T
C497        C498   1.207       .  T
C499        C500   1.208       .  T
C501        C502   1.208       .  T
C503        C504   1.209       .  T
C505        C506   1.206       .  T
C507        C508   1.206       .  T
C509        C510   1.208       .  T
C511        C512   1.208       .  T
C513        C514   1.206       .  T
C515        C516   1.206       .  T
C517        C518   1.208       .  T
C519        C520   1.207       .  T
C521        C522   1.206       .  T
C523        C524   1.207       .  T
C525        C526   1.206   1_565  T
C527        C528   1.207       .  T
C529        C530   1.207       .  T
C531        C532   1.210       .  T
C533        C534   1.207       .  T
C535        C536   1.207       .  T
