geometry optimzed in LAMMPS
_audit_creation_date              2020-11-30 
_audit_creation_method            'lammps2cif' 
_symmetry_space_group_name_H-M    'P1' 
_symmetry_Int_Tables_number       1 
_symmetry_cell_setting            triclinic 
loop_ 
_symmetry_equiv_pos_as_xyz 
  x,y,z 
_cell_length_a                    44.24492793 
_cell_length_b                    39.39445191950636 
_cell_length_c                    27.035943875617882 
_cell_angle_alpha                 89.98618450871655 
_cell_angle_beta                  89.91183521270605 
_cell_angle_gamma                 90.01032387016596 
loop_ 
_atom_site_label 
_atom_site_type_symbol 
_atom_site_fract_x 
_atom_site_fract_y 
_atom_site_fract_z 
_atom_site_charge 
C1          C  0.72623296  0.26773325  0.72849423     0.02200
C2          C  0.72707818  0.23194351  0.72797679     0.02200
C3          C  0.74995638  0.21484583  0.75384106    -0.18300
C4          C  0.77257294  0.23253255  0.77972171     0.02200
C5          C  0.77293231  0.26846737  0.77727429     0.02200
C6          C  0.74950609  0.28548628  0.75237919    -0.18300
H7          H  0.74923515  0.31301495  0.75195144     0.04200
H8          H  0.74996712  0.18731588  0.75414956     0.04200
Zr9        Zr  0.50055236  0.44537609  0.55065157     2.17500
O10         O  0.49951819  0.42991030  0.63791746    -0.51400
O11         O  0.50265456  0.38968955  0.51411552    -0.74600
O12         O  0.45221080  0.42010940  0.57027221    -0.81400
O13         O  0.58579616  0.45252576  0.54728382    -0.83100
O14         O  0.41549612  0.45109286  0.53299490    -0.78700
O15         O  0.54737736  0.42160199  0.58000301    -0.90400
O16         O  0.50376810  0.39425619  0.43053553    -0.76300
O17         O  0.46965726  0.44981403  0.47922884    -0.85800
O18         O  0.53416870  0.44963720  0.48229486    -0.85500
O19         O  0.46981967  0.49440856  0.56534373    -0.72300
O20         O  0.53099057  0.49425481  0.56778963    -0.84400
Zr21       Zr  0.50289366  0.55299141  0.43833941     2.26400
Zr22       Zr  0.43966752  0.49933943  0.49212332     2.06300
Zr23       Zr  0.56403531  0.49877887  0.49794850     2.10000
Zr24       Zr  0.50330832  0.45466876  0.41102907     1.78800
O25         O  0.60219618  0.52166718  0.55350906    -0.93200
O26         O  0.46163971  0.43054538  0.36389546    -0.41000
O27         O  0.53390390  0.50403290  0.42455292    -0.77700
O28         O  0.47240047  0.50412422  0.42169413    -0.96300
O29         O  0.46951101  0.54867299  0.50679828    -0.89600
O30         O  0.53386645  0.54835146  0.50992978    -0.92500
C31         C  0.50383779  0.37679118  0.47069524     1.01300
C32         C  0.57557162  0.42760988  0.57333279     1.14200
C33         C  0.42450950  0.42572058  0.55912134     1.05000
O34         O  0.40215204  0.47864447  0.43365871    -0.94600
O35         O  0.41696823  0.54666397  0.44761761    -0.90400
O36         O  0.45516623  0.57864980  0.41608302    -0.83500
C37         C  0.42706418  0.57245115  0.42352588     1.11600
O38         O  0.49989378  0.52639801  0.66454737    -0.96600
Zr39       Zr  0.50036386  0.54401984  0.57808644     1.88900
O40         O  0.50395619  0.60905599  0.47397388    -0.73300
O41         O  0.40244403  0.52404112  0.54801859    -0.52500
O42         O  0.45608349  0.56743200  0.61947560    -0.97200
O43         O  0.54313062  0.56839283  0.62254092    -0.54400
O44         O  0.49946848  0.60418207  0.55729639    -0.73800
C45         C  0.50188450  0.62175868  0.51744870     0.98600
O46         O  0.50189071  0.56838779  0.35092400    -0.62600
O47         O  0.60177083  0.47356832  0.44350654    -0.57400
O48         O  0.55125699  0.57503280  0.41215745    -0.94100
O49         O  0.58764741  0.54636949  0.45463288    -0.92500
O50         O  0.54893666  0.43509372  0.36933439    -0.92900
O51         O  0.50303439  0.47141642  0.32426103    -0.91600
C52         C  0.57876418  0.56996277  0.42507759     1.17400
H53         H  0.54695272  0.42987468  0.47942603     0.33400
H54         H  0.46053553  0.50779477  0.39216666     0.44200
H55         H  0.54654196  0.56812011  0.51391467     0.37700
H56         H  0.45709851  0.49067069  0.59395036     0.34200
H57         H  0.47034321  0.41042109  0.34719130     0.26000
H58         H  0.38271300  0.51640620  0.53489880     0.31900
H59         H  0.46291735  0.58941307  0.63327278     0.37800
H60         H  0.54399304  0.41198691  0.35746481     0.32300
H61         H  0.62084345  0.47462751  0.46255767     0.31200
H62         H  0.62157302  0.51845138  0.53574819     0.32900
H63         H  0.55207972  0.58534001  0.59978589     0.31800
H64         H  0.51891398  0.48903515  0.32156964     0.35800
H65         H  0.51880889  0.55561679  0.33578527     0.28600
H66         H  0.49258157  0.40601637  0.63875857     0.32800
H67         H  0.49924422  0.54767376  0.68400633     0.35600
H68         H  0.59667210  0.44910600  0.44256839     0.28300
H69         H  0.48357469  0.55729737  0.33747945     0.41100
H70         H  0.40462312  0.45367039  0.43371665     0.31200
H71         H  0.44781210  0.42102417  0.38915601     0.38800
H72         H  0.55824982  0.54989150  0.62389181     0.30700
H73         H  0.40478764  0.51159187  0.57960348     0.30700
H74         H  0.48259401  0.44313053  0.65219763     0.31000
Zr75       Zr  0.50345663  0.94529025  0.44394135     2.17500
O76         O  0.50488228  0.92625391  0.35816401    -0.51400
O77         O  0.50133654  0.88984664  0.48084539    -0.74600
O78         O  0.55209273  0.92137073  0.42297943    -0.81400
O79         O  0.41779994  0.95278018  0.44650616    -0.83100
O80         O  0.58891270  0.95172930  0.46087329    -0.78700
O81         O  0.45640949  0.92261911  0.41290646    -0.90400
O82         O  0.49849697  0.89471713  0.56432736    -0.76300
O83         O  0.53354550  0.94914398  0.51647315    -0.85800
O84         O  0.46895496  0.95050370  0.51102692    -0.85500
O85         O  0.53545672  0.99348675  0.43050856    -0.72300
O86         O  0.47413677  0.99466988  0.42481725    -0.84400
Zr87       Zr  0.50041867  0.05379785  0.55426508     2.26400
Zr88       Zr  0.56435397  0.99839458  0.50524610     2.06300
Zr89       Zr  0.43990775  0.00002420  0.49331884     2.10000
Zr90       Zr  0.49907754  0.95522595  0.58322211     1.78800
O91         O  0.40437651  0.02288548  0.43326348    -0.93200
O92         O  0.54275283  0.93435731  0.62882674    -0.41000
O93         O  0.46900745  0.00502283  0.56782402    -0.77700
O94         O  0.53009676  0.00462824  0.57347226    -0.96300
O95         O  0.53551336  0.04826607  0.48814602    -0.89600
O96         O  0.47100567  0.04884291  0.48105300    -0.92500
C97         C  0.49924846  0.87717363  0.52427421     1.01300
C98         C  0.42815663  0.92822103  0.41993359     1.14200
C99         C  0.57990496  0.92712129  0.43325145     1.05000
O100        O  0.59890563  0.97312002  0.56492438    -0.94600
O101        O  0.58630675  0.04568562  0.55153319    -0.90400
O102        O  0.54786678  0.07859185  0.58027202    -0.83500
C103        C  0.57604714  0.07177765  0.57484924     1.11600
O104        O  0.50944763  0.02538763  0.32906423    -0.96600
Zr105      Zr  0.50619384  0.04348661  0.41513984     1.88900
O106        O  0.50077483  0.10967075  0.51750935    -0.73300
O107        O  0.60496235  0.02244269  0.45535742    -0.52500
O108        O  0.55305436  0.06411204  0.37837338    -0.97200
O109        O  0.46686606  0.06866469  0.36358911    -0.54400
O110        O  0.50673517  0.10379008  0.43447530    -0.73800
C111        C  0.50354455  0.12175832  0.47371733     0.98600
O112        O  0.49861222  0.06835868  0.64186057    -0.62600
O113        O  0.40012227  0.97818283  0.54697595    -0.57400
O114        O  0.45174360  0.07853006  0.57391148    -0.94100
O115        O  0.41539099  0.04788316  0.53503005    -0.92500
O116        O  0.45562122  0.93095427  0.62579552    -0.92900
O117        O  0.49686757  0.97127921  0.67017429    -0.91600
C118        C  0.42408120  0.07301052  0.56196749     1.17400
H119        H  0.45593920  0.93090454  0.51378287     0.33400
H120        H  0.54127596  0.00848967  0.60368947     0.44200
H121        H  0.45864764  0.06869372  0.47569335     0.37700
H122        H  0.54867719  0.98941942  0.40260625     0.34200
H123        H  0.53444528  0.91737612  0.65218175     0.26000
H124        H  0.62289031  0.00833355  0.46286747     0.31900
H125        H  0.56127307  0.08050555  0.40262696     0.37800
H126        H  0.43916828  0.94758025  0.62054426     0.32300
H127        H  0.38122382  0.98171848  0.52809676     0.31200
H128        H  0.38452772  0.02212257  0.45019017     0.32900
H129        H  0.47142655  0.09325168  0.36209140     0.31800
H130        H  0.48830033  0.99447637  0.67016798     0.35800
H131        H  0.48074805  0.05611282  0.65487448     0.28600
H132        H  0.51142491  0.90222362  0.35953096     0.32800
H133        H  0.51269364  0.04640061  0.30965567     0.35600
H134        H  0.40303207  0.95326702  0.54701233     0.28300
H135        H  0.51604384  0.05638232  0.65676815     0.41100
H136        H  0.59385481  0.98391926  0.59695182     0.31200
H137        H  0.55433922  0.92077592  0.60452175     0.38800
H138        H  0.44814653  0.06709963  0.38352801     0.30700
H139        H  0.59971458  0.01665893  0.42077929     0.30700
H140        H  0.52204579  0.93854106  0.34288095     0.31000
C141        C  0.26685864  0.26844904  0.70158481     0.02200
C142        C  0.26815023  0.23274431  0.70294143     0.02200
C143        C  0.24543770  0.21474575  0.72792719    -0.18300
C144        C  0.22215413  0.23152587  0.75348143     0.02200
C145        C  0.22147646  0.26754351  0.75358765     0.02200
C146        C  0.24358338  0.28536129  0.72657841    -0.18300
H147        H  0.24314906  0.31289048  0.72599368     0.04200
H148        H  0.24631862  0.18722789  0.72847779     0.04200
Zr149      Zr  0.00125180  0.55507722  0.05161549     2.17500
O150        O  0.99663966  0.57153779  0.13818798    -0.51400
O151        O  0.00484139  0.61075839  0.01595068    -0.74600
O152        O  0.04907524  0.57790880  0.07840680    -0.81400
O153        O  0.91631459  0.55183238  0.03146244    -0.83100
O154        O  0.08675207  0.54631131  0.04473142    -0.78700
O155        O  0.95327103  0.58141749  0.07041108    -0.90400
O156        O  0.00784553  0.60583752  0.93249906    -0.76300
O157        O  0.03616015  0.54892576  0.98546701    -0.85800
O158        O  0.97185232  0.55153367  0.97835318    -0.85500
O159        O  0.03022699  0.50540281  0.07066802    -0.72300
O160        O  0.96875654  0.50742918  0.06482227    -0.84400
Zr161      Zr  0.00175236  0.44632894  0.94095220     2.26400
Zr162      Zr  0.06388403  0.49814612  0.00162763     2.06300
Zr163      Zr  0.93987694  0.50343623  0.99008130     2.10000
Zr164      Zr  0.00682804  0.54530485  0.91259832     1.78800
O165        O  0.89915115  0.48374736  0.04350331    -0.93200
O166        O  0.05450651  0.56525760  0.87777041    -0.41000
O167        O  0.97395485  0.49692818  0.92171470    -0.77700
O168        O  0.03448978  0.49405341  0.92750536    -0.96300
O169        O  0.03193504  0.45000931  0.01331407    -0.89600
O170        O  0.96769257  0.45310521  0.00827381    -0.92500
C171        C  0.00694015  0.62345672  0.97250727     1.01300
C172        C  0.92555596  0.57668106  0.05841587     1.14200
C173        C  0.07706718  0.57180035  0.07007693     1.05000
O174        O  0.10480928  0.51978870  0.95018226    -0.94600
O175        O  0.08702956  0.45073184  0.95640899    -0.90400
O176        O  0.04962163  0.42278662  0.91534717    -0.83500
C177        C  0.07741560  0.42755320  0.92666844     1.11600
O178        O  0.99700132  0.47463500  0.16698891    -0.96600
Zr179      Zr  0.99787285  0.45717456  0.08046040     1.88900
O180        O  0.00242924  0.39073842  0.97968373    -0.73300
O181        O  0.09765281  0.47183555  0.06146003    -0.52500
O182        O  0.04151752  0.43317707  0.12273293    -0.97200
O183        O  0.95349389  0.43570455  0.12401948    -0.54400
O184        O  0.99627838  0.39685672  0.06266273    -0.73800
C185        C  0.99950412  0.37873189  0.02360111     0.98600
O186        O  0.00109331  0.43025333  0.85378448    -0.62600
O187        O  0.90537894  0.52645779  0.92852599    -0.57400
O188        O  0.95385890  0.42225376  0.91589273    -0.94100
O189        O  0.91659515  0.45611228  0.94584566    -0.92500
O190        O  0.96687274  0.57032450  0.86266701    -0.92900
O191        O  0.01146483  0.52989991  0.82568608    -0.91600
C192        C  0.92588167  0.42962965  0.92245483     1.21400
H193        H  0.96000671  0.57178261  0.97299724     0.33400
H194        H  0.04757549  0.48985823  0.89950566     0.44200
H195        H  0.95435103  0.43386277  0.01158170     0.37700
H196        H  0.04161634  0.50897074  0.10073639     0.34200
H197        H  0.04868059  0.58180504  0.85192207     0.26000
H198        H  0.11817582  0.47843725  0.05047631     0.31900
H199        H  0.03396572  0.41210431  0.13842374     0.37800
H200        H  0.97607268  0.59091982  0.84800695     0.32300
H201        H  0.88541745  0.52669169  0.94513956     0.31200
H202        H  0.88043383  0.48885355  0.02490048     0.32900
H203        H  0.94173084  0.42321867  0.09877343     0.31800
H204        H  0.00367910  0.50637661  0.82390063     0.35800
H205        H  0.98384757  0.44285203  0.83940453     0.28600
H206        H  0.00329078  0.59553075  0.13936322     0.32800
H207        H  0.99760357  0.45331763  0.18637629     0.35600
H208        H  0.91101962  0.55069791  0.92563787     0.28300
H209        H  0.01906475  0.44136027  0.83908229     0.41100
H210        H  0.12336248  0.50955980  0.96416410     0.31200
H211        H  0.06373811  0.57927049  0.90413698     0.38800
H212        H  0.94117752  0.45611717  0.13113993     0.30700
H213        H  0.09444535  0.48461903  0.09255859     0.30700
H214        H  0.01270383  0.55876233  0.15554867     0.31000
Zr215      Zr  0.00395728  0.94791039  0.06228248     2.17500
O216        O  0.00720041  0.93461697  0.15020400    -0.51400
O217        O  0.00318980  0.89158449  0.02707157    -0.74600
O218        O  0.95677877  0.92305979  0.08962201    -0.81400
O219        O  0.08896882  0.95638244  0.04440357    -0.83100
O220        O  0.91896724  0.95021925  0.04836185    -0.78700
O221        O  0.05313673  0.92589820  0.08578553    -0.90400
O222        O  0.00197406  0.89667666  0.94340432    -0.76300
O223        O  0.97031303  0.95155933  0.99379401    -0.85800
O224        O  0.03481834  0.95308290  0.99042410    -0.85500
O225        O  0.97201959  0.99598411  0.07829283    -0.72300
O226        O  0.03390953  0.99769458  0.07571870    -0.84400
Zr227      Zr  0.99971452  0.05552804  0.94890981     2.26400
Zr228      Zr  0.93951181  0.00047888  0.00763288     2.06300
Zr229      Zr  0.06393504  0.00351723  0.00234904     2.10000
Zr230      Zr  0.00119487  0.95668848  0.92253775     1.78800
O231        O  0.09900397  0.03077348  0.05917639    -0.93200
O232        O  0.95699603  0.93296089  0.88150218    -0.41000
O233        O  0.03084282  0.00714783  0.93261215    -0.77700
O234        O  0.96994379  0.00567562  0.93474694    -0.96300
O235        O  0.96872121  0.05044291  0.02045459    -0.89600
O236        O  0.03302581  0.05195930  0.01761961    -0.92500
C237        C  0.00232755  0.87905790  0.98333758     1.01300
C238        C  0.08058736  0.93202413  0.07304131     1.14200
C239        C  0.92899443  0.92686999  0.07732633     1.05000
O240        O  0.89930489  0.97986811  0.95402481    -0.94600
O241        O  0.91505280  0.04796175  0.96448934    -0.90400
O242        O  0.95123576  0.07768179  0.92307907    -0.83500
C243        C  0.92366504  0.07181306  0.93502405     1.11600
O244        O  0.00329616  0.02594222  0.17452881    -0.96600
Zr245      Zr  0.00200466  0.04597760  0.08909991     1.88900
O246        O  0.99770515  0.11124338  0.98639163    -0.73300
O247        O  0.90288230  0.02150543  0.06757412    -0.52500
O248        O  0.95926596  0.06741350  0.13671696    -0.97200
O249        O  0.04511942  0.07161102  0.13106056    -0.54400
O250        O  0.99819862  0.10587117  0.06997501    -0.73800
C251        C  0.99710392  0.12365411  0.03029950     0.98600
O252        O  0.99873842  0.06934481  0.86095224    -0.62600
O253        O  0.10329069  0.98369979  0.94633511    -0.57400
O254        O  0.04693911  0.07943163  0.91990460    -0.94100
O255        O  0.08576043  0.04850584  0.95108904    -0.92500
O256        O  0.04463688  0.93459095  0.87745076    -0.92900
O257        O  0.99980298  0.97070523  0.83485795    -0.91600
C258        C  0.07521233  0.07303821  0.92475826     1.17400
H259        H  0.04777278  0.93357115  0.98605154     0.33400
H260        H  0.95726042  0.00888276  0.90601691     0.44200
H261        H  0.04532111  0.07211989  0.02010729     0.37700
H262        H  0.96007619  0.99207252  0.10775484     0.34200
H263        H  0.96472559  0.91298694  0.86321282     0.26000
H264        H  0.91017370  0.04448395  0.07623272     0.31900
H265        H  0.96707645  0.08779504  0.15390884     0.37800
H266        H  0.03821342  0.91193062  0.86561601     0.32300
H267        H  0.12121535  0.97993166  0.96751107     0.31200
H268        H  0.11788263  0.03348535  0.03986688     0.32900
H269        H  0.03662500  0.09140441  0.14884861     0.31800
H270        H  0.01158826  0.99198168  0.83203459     0.35800
H271        H  0.01637721  0.05736908  0.84664444     0.28600
H272        H  0.00007504  0.91088863  0.15338593     0.32800
H273        H  0.00513373  0.04649405  0.19537650     0.35600
H274        H  0.09674280  0.96066840  0.93637896     0.28300
H275        H  0.98119950  0.05673898  0.84756525     0.41100
H276        H  0.90876192  0.97763501  0.92099039     0.31200
H277        H  0.94463588  0.92319182  0.90855443     0.38800
H278        H  0.05767560  0.08169121  0.10453681     0.30700
H279        H  0.88428859  0.02555833  0.04805051     0.30700
H280        H  0.99120863  0.94848997  0.16598617     0.31000
C281        C  0.28186976  0.76689920  0.25428054     0.02200
C282        C  0.28029413  0.73118841  0.25808085     0.02200
C283        C  0.25615927  0.71378898  0.23617712    -0.18300
C284        C  0.23293058  0.73100464  0.21134243     0.02200
C285        C  0.23420760  0.76683443  0.20776466     0.02200
C286        C  0.25873631  0.78414219  0.22917696    -0.18300
H287        H  0.25929452  0.81163643  0.22766484     0.04200
H288        H  0.25549063  0.68630509  0.23854793     0.04200
C289        C  0.73009538  0.76764814  0.27442995     0.02200
C290        C  0.72991206  0.73170125  0.27587288     0.02200
C291        C  0.75164538  0.71385907  0.24826837    -0.18300
C292        C  0.77365819  0.73075970  0.22027880     0.02200
C293        C  0.77434079  0.76656423  0.21992480     0.02200
C294        C  0.75251440  0.78443277  0.24704041    -0.18300
H295        H  0.75316190  0.81195628  0.24738166     0.04200
H296        H  0.75115159  0.68633218  0.24777878     0.04200
C297        C  0.88744858  0.86731266  0.16410898    -0.27700
C298        C  0.86556111  0.85329846  0.13243577     0.01900
C299        C  0.86482483  0.86389124  0.08254506     0.30000
C300        C  0.88519535  0.88838202  0.06547815    -0.19500
C301        C  0.90710735  0.90209964  0.09705123    -0.28900
C302        C  0.90825477  0.89129198  0.14667829     0.44100
C303        C  0.84271320  0.82907532  0.15222714     0.05300
O304        O  0.84437668  0.85036112  0.04996293    -0.57400
H305        H  0.88429689  0.89614536  0.02704957     0.18200
O306        O  0.92917477  0.90454277  0.17872657    -0.64100
H307        H  0.88804191  0.86022955  0.20280760     0.16600
C308        C  0.85097505  0.80162396  0.18295859     0.28900
C309        C  0.82865083  0.78080868  0.20377337    -0.25000
C310        C  0.79795439  0.78631530  0.19345234    -0.24300
C311        C  0.78980564  0.81286987  0.16119320     0.40300
C312        C  0.81197887  0.83423262  0.14161638    -0.26700
O313        O  0.88073544  0.79524722  0.19359818    -0.58600
H314        H  0.83532785  0.76088845  0.22910553     0.16000
O315        O  0.76007259  0.81889894  0.14978846    -0.60000
H316        H  0.80496861  0.85547127  0.11892815     0.14400
H317        H  0.92028319  0.92618636  0.19053815     0.46300
H318        H  0.88735538  0.77842433  0.16853749     0.41700
H319        H  0.75418402  0.80035543  0.12695808     0.45100
H320        H  0.85372002  0.82897471  0.03812943     0.36600
C321        C  0.15918320  0.80933882  0.17725267    -0.27700
C322        C  0.16821321  0.83347834  0.14174392     0.01900
C323        C  0.19876695  0.83419429  0.12673982     0.30000
C324        C  0.21940689  0.81103174  0.14675808    -0.19500
C325        C  0.21053468  0.78750722  0.18293589    -0.28900
C326        C  0.18013305  0.78697941  0.19849204     0.44100
C327        C  0.14603834  0.85911862  0.12343378     0.05300
O328        O  0.20923711  0.85934811  0.09600738    -0.57400
H329        H  0.24287070  0.81235776  0.13534305     0.18200
O330        O  0.17091551  0.76585598  0.23590696    -0.64100
H331        H  0.13591270  0.80847340  0.18972112     0.16600
C332        C  0.14335418  0.86709851  0.07264281     0.28900
C333        C  0.12295809  0.89210963  0.05708889    -0.25000
C334        C  0.10392128  0.90838854  0.09113154    -0.24300
C335        C  0.10591694  0.89992781  0.14153994     0.40300
C336        C  0.12705987  0.87582913  0.15741841    -0.26700
O337        O  0.15979339  0.84993372  0.03763260    -0.58600
H338        H  0.12107957  0.89777944  0.01798074     0.16000
O339        O  0.08722045  0.91503293  0.17554212    -0.60000
H340        H  0.12865200  0.87025374  0.19656612     0.14400
H341        H  0.17335736  0.77927226  0.26668634     0.46300
H342        H  0.14849438  0.82858658  0.03167639     0.41700
H343        H  0.09899839  0.93433156  0.18903588     0.45100
H344        H  0.21760396  0.84758030  0.06658915     0.36600
C345        C  0.01591610  0.28557077  0.00186818    -0.27700
C346        C  0.99731248  0.27008972  0.03734504     0.01900
C347        C  0.98066790  0.29047030  0.07028615     0.30000
C348        C  0.98214572  0.32592540  0.06644135    -0.19500
C349        C  0.99977801  0.34141340  0.02942415    -0.28900
C350        C  0.01723498  0.32084990  0.99768564     0.44100
C351        C  0.99472358  0.23267601  0.03771757     0.05300
O352        O  0.96225267  0.27598560  0.10527507    -0.57400
H353        H  0.96868643  0.34128738  0.09136539     0.18200
O354        O  0.03568806  0.33493079  0.96237999    -0.64100
H355        H  0.02931876  0.27014341  0.97693766     0.16600
C356        C  0.98559554  0.21543135  0.99476564     0.28900
C357        C  0.98585801  0.18004942  0.99350672    -0.25000
C358        C  0.99510925  0.16107482  0.03481030    -0.24300
C359        C  0.00286867  0.17841279  0.07881941     0.40300
C360        C  0.00268285  0.21399758  0.07991311    -0.26700
O361        O  0.97569439  0.23308097  0.95413544    -0.58600
H362        H  0.97889311  0.16748834  0.95974330     0.16000
O363        O  0.01105559  0.16102680  0.12068759    -0.60000
H364        H  0.00956256  0.22703552  0.11333663     0.14400
H365        H  0.05507947  0.33949952  0.97950014     0.46300
H366        H  0.99246450  0.23182581  0.92979897     0.41700
H367        H  0.03342746  0.15981529  0.11957386     0.45100
H368        H  0.94198808  0.27487968  0.08972439     0.36600
C369        C  0.98862802  0.78610644  0.01122036    -0.27700
C370        C  0.00384594  0.77027989  0.97187469     0.01900
C371        C  0.01725961  0.79052819  0.93489518     0.30000
C372        C  0.01588442  0.82595237  0.93823600    -0.19500
C373        C  0.00182008  0.84171439  0.97879286    -0.28900
C374        C  0.98773962  0.82143090  0.01510704     0.44100
C375        C  0.00615771  0.73272729  0.97072023     0.05300
O376        O  0.03249843  0.77599532  0.89609469    -0.57400
H377        H  0.02675076  0.84111275  0.90987811     0.18200
O378        O  0.97303260  0.83581844  0.05461188    -0.64100
H379        H  0.97745905  0.77098315  0.03928718     0.16600
C380        C  0.01608418  0.71472955  0.01263089     0.28900
C381        C  0.01696600  0.67932858  0.01182602    -0.25000
C382        C  0.00807419  0.66101034  0.96963772    -0.24300
C383        C  0.99902316  0.67906364  0.92710645     0.40300
C384        C  0.99801890  0.71462681  0.92797800    -0.26700
O385        O  0.02592281  0.73160453  0.05402547    -0.58600
H386        H  0.02455508  0.66618569  0.04472555     0.16000
O387        O  0.99048271  0.66234403  0.88490040    -0.60000
H388        H  0.99018404  0.72807066  0.89548060     0.14400
H389        H  0.95220278  0.84034815  0.04281180     0.46300
H390        H  0.01036371  0.72729574  0.07976165     0.41700
H391        H  0.96832062  0.65922421  0.88800759     0.45100
H392        H  0.05346323  0.77274958  0.90811676     0.36600
C393        C  0.81617520  0.68767036  0.11570084    -0.27700
C394        C  0.83692996  0.66794865  0.14240750     0.01900
C395        C  0.83687568  0.66926483  0.19442240     0.30000
C396        C  0.81627384  0.69005000  0.21913483    -0.19500
C397        C  0.79572065  0.70999708  0.19260478    -0.28900
C398        C  0.79559091  0.70868221  0.14056583     0.44100
C399        C  0.85911662  0.64636349  0.11640296     0.05300
O400        O  0.85692302  0.65024023  0.22138305    -0.57400
H401        H  0.81635950  0.69073215  0.25920842     0.18200
O402        O  0.77538506  0.72765499  0.11387863    -0.64100
H403        H  0.81610523  0.68691659  0.07564424     0.16600
C404        C  0.85002055  0.61784008  0.08898958     0.28900
C405        C  0.87178681  0.59562072  0.06969477    -0.25000
C406        C  0.90287342  0.60159965  0.07694412    -0.24300
C407        C  0.91174560  0.63134931  0.10258569     0.40300
C408        C  0.88992714  0.65322074  0.12207387    -0.26700
O409        O  0.81993710  0.61045929  0.08323409    -0.58600
H410        H  0.86419992  0.57329593  0.04989801     0.16000
O411        O  0.94163244  0.63963465  0.10862498    -0.60000
H412        H  0.89711125  0.67544907  0.14255626     0.14400
H413        H  0.75721477  0.71307971  0.11052444     0.46300
H414        H  0.81406285  0.62138894  0.05164799     0.41700
H415        H  0.94692295  0.63173068  0.14237701     0.45100
H416        H  0.84618062  0.62871543  0.22863485     0.36600
C417        C  0.11204238  0.65044187  0.12926015    -0.27700
C418        C  0.14281806  0.64284615  0.12626175     0.01900
C419        C  0.15213942  0.61194166  0.10533224     0.30000
C420        C  0.13060408  0.58889394  0.08763465    -0.19500
C421        C  0.09951184  0.59626567  0.09041299    -0.28900
C422        C  0.09041424  0.62754007  0.11180547     0.44100
C423        C  0.16492540  0.66667519  0.14751134     0.05300
O424        O  0.18222522  0.60371495  0.10320019    -0.57400
H425        H  0.13834751  0.56515604  0.07187180     0.18200
O426        O  0.06051879  0.63644240  0.11524736    -0.64100
H427        H  0.10474244  0.67421000  0.14555242     0.16600
C428        C  0.18029001  0.69034307  0.11769505     0.28900
C429        C  0.20186984  0.71197737  0.13882742    -0.25000
C430        C  0.20812570  0.71039557  0.18972684    -0.24300
C431        C  0.19195387  0.68722972  0.21957071     0.40300
C432        C  0.17054255  0.66565594  0.19838359    -0.26700
O433        O  0.17489604  0.69190955  0.06780027    -0.58600
H434        H  0.21425133  0.72940455  0.11533191     0.16000
O435        O  0.19736490  0.68500470  0.26942542    -0.60000
H436        H  0.15853078  0.64771742  0.22160500     0.14400
H437        H  0.05422931  0.62959313  0.14901275     0.46300
H438        H  0.15560884  0.70452359  0.06445300     0.41700
H439        H  0.18650885  0.70450604  0.28432621     0.45100
H440        H  0.18892103  0.61070100  0.06967541     0.36600
C441        C  0.14806554  0.30628005  0.80179816    -0.27700
C442        C  0.15915673  0.33231755  0.83249434     0.01900
C443        C  0.19064856  0.33555059  0.83861582     0.30000
C444        C  0.21030050  0.31321425  0.81451164    -0.19500
C445        C  0.19932249  0.28790266  0.78262543    -0.28900
C446        C  0.16785167  0.28467223  0.77618631     0.44100
C447        C  0.13800710  0.35670598  0.85668310     0.05300
O448        O  0.20257035  0.36122027  0.86676430    -0.57400
H449        H  0.23443147  0.31629853  0.81968453     0.18200
O450        O  0.15616561  0.26138251  0.74375754    -0.64100
H451        H  0.12395464  0.30305137  0.79688410     0.16600
C452        C  0.11533398  0.37340641  0.82930263     0.28900
C453        C  0.09628374  0.39692723  0.85252358    -0.25000
C454        C  0.09941389  0.40444908  0.90301586    -0.24300
C455        C  0.12191144  0.38778324  0.93052539     0.40300
C456        C  0.14092668  0.36408869  0.90740919    -0.26700
O457        O  0.11242441  0.36798695  0.77939832    -0.58600
H458        H  0.07901023  0.40951183  0.83083793     0.16000
O459        O  0.12486877  0.39365244  0.98027930    -0.60000
H460        H  0.15779451  0.35110050  0.92939020     0.14400
H461        H  0.15783045  0.27212454  0.71068886     0.46300
H462        H  0.09370072  0.35438661  0.77559398     0.41700
H463        H  0.11231040  0.37600527  0.99652033     0.45100
H464        H  0.20583518  0.38031369  0.84343886     0.36600
C465        C  0.17689207  0.18767888  0.85488523    -0.27700
C466        C  0.15946433  0.16471154  0.82716855     0.01900
C467        C  0.16219164  0.16473145  0.77523313     0.30000
C468        C  0.18213328  0.18720565  0.75193517    -0.19500
C469        C  0.19955698  0.21014154  0.77958095    -0.28900
C470        C  0.19683923  0.21031580  0.83145057     0.44100
C471        C  0.13826832  0.14103785  0.85239861     0.05300
O472        O  0.14579560  0.14247603  0.74694035    -0.57400
H473        H  0.18424171  0.18656021  0.71200105     0.18200
O474        O  0.21468595  0.23126648  0.85951447    -0.64100
H475        H  0.17499804  0.18811981  0.89482420     0.16600
C476        C  0.14822879  0.11834994  0.88920651     0.28900
C477        C  0.12772887  0.09588498  0.91169398    -0.25000
C478        C  0.09690973  0.09597688  0.89874987    -0.24300
C479        C  0.08711475  0.11887354  0.86167348     0.40300
C480        C  0.10770285  0.14089937  0.83893788    -0.26700
O481        O  0.17816528  0.11712885  0.90219278    -0.58600
H482        H  0.13600707  0.07864423  0.93979739     0.16000
O483        O  0.05758231  0.11954441  0.84632553    -0.60000
H484        H  0.09964003  0.15823367  0.81076411     0.14400
H485        H  0.20068154  0.24801447  0.87453848     0.46300
H486        H  0.17949168  0.12951063  0.93406726     0.41700
H487        H  0.04819785  0.13871737  0.86448823     0.45100
H488        H  0.15902357  0.12236275  0.74272270     0.36600
C489        C  0.65417552  0.88311885  0.39884107    -0.27700
C490        C  0.64378770  0.85724154  0.36759228     0.01900
C491        C  0.61269300  0.85421993  0.35837045     0.30000
C492        C  0.59241909  0.87699285  0.38019401    -0.19500
C493        C  0.60256114  0.90340574  0.41126489    -0.28900
C494        C  0.63392018  0.90611667  0.42061400     0.44100
C495        C  0.66555947  0.83379935  0.34398052     0.05300
O496        O  0.60187644  0.82822931  0.32953874    -0.57400
H497        H  0.56857354  0.87376089  0.37251163     0.18200
O498        O  0.64518449  0.93124885  0.45041711    -0.64100
H499        H  0.67815949  0.88568870  0.40598417     0.16600
C500        C  0.66942181  0.83384218  0.29236262     0.28900
C501        C  0.69005094  0.81158401  0.27045632    -0.25000
C502        C  0.70707459  0.78898742  0.29933300    -0.24300
C503        C  0.70341243  0.78904773  0.35106696     0.40300
C504        C  0.68274983  0.81149254  0.37309058    -0.26700
O505        O  0.65426475  0.85681423  0.26340289    -0.58600
H506        H  0.69308728  0.81223486  0.23067453     0.16000
O507        O  0.72103652  0.76863274  0.38033571    -0.60000
H508        H  0.68018786  0.81158625  0.41295061     0.14400
H509        H  0.64625139  0.92103133  0.48390269     0.46300
H510        H  0.63879059  0.84342437  0.24548921     0.41700
H511        H  0.70703715  0.75161825  0.39474767     0.45100
H512        H  0.59315740  0.83923620  0.29981858     0.36600
C513        C  0.34354284  0.83261074  0.27457893    -0.27700
C514        C  0.34728252  0.83128435  0.32608579     0.01900
C515        C  0.33112734  0.80683417  0.35344232     0.30000
C516        C  0.31059611  0.78523825  0.32959972    -0.19500
C517        C  0.30610359  0.78729902  0.27825355    -0.28900
C518        C  0.32311183  0.81095548  0.25067436     0.44100
C519        C  0.36790192  0.85575245  0.35074922     0.05300
O520        O  0.33507497  0.80405806  0.40356985    -0.57400
H521        H  0.29756799  0.76745399  0.35150887     0.18200
O522        O  0.32018819  0.81268780  0.20020496    -0.64100
H523        H  0.35607301  0.85100645  0.25291754     0.16600
C524        C  0.39864303  0.85727608  0.33777559     0.28900
C525        C  0.41764330  0.88108872  0.36021683    -0.25000
C526        C  0.40663349  0.90407032  0.39596566    -0.24300
C527        C  0.37568452  0.90244310  0.40894445     0.40300
C528        C  0.35671226  0.87830819  0.38659254    -0.26700
O529        O  0.41042846  0.83548780  0.30318278    -0.58600
H530        H  0.44122327  0.88143226  0.34939212     0.16000
O531        O  0.36383632  0.92354629  0.44434342    -0.60000
H532        H  0.33304540  0.87745768  0.39688170     0.14400
H533        H  0.30829524  0.83355950  0.19376093     0.46300
H534        H  0.41329189  0.81364677  0.32082343     0.41700
H535        H  0.35436493  0.94244418  0.42573584     0.45100
H536        H  0.35181025  0.78755133  0.40773271     0.36600
C537        C  0.34996865  0.12115404  0.58349091    -0.27700
C538        C  0.35960322  0.14718784  0.61517587     0.01900
C539        C  0.39019905  0.14892879  0.62865030     0.30000
C540        C  0.41059049  0.12455509  0.61139796    -0.19500
C541        C  0.40118391  0.09799393  0.58004458    -0.28900
C542        C  0.37041405  0.09673461  0.56580461     0.44100
C543        C  0.33736118  0.17104831  0.63687437     0.05300
O544        O  0.40035919  0.17431898  0.65911050    -0.57400
H545        H  0.43396176  0.12663791  0.62285378     0.18200
O546        O  0.35984627  0.07158487  0.53533306    -0.64100
H547        H  0.32635917  0.11936642  0.57320221     0.16600
C548        C  0.31924843  0.19212893  0.60704057     0.28900
C549        C  0.29733849  0.21306926  0.62887120    -0.25000
C550        C  0.29337329  0.21339150  0.68040076    -0.24300
C551        C  0.31220888  0.19318234  0.71022422     0.40300
C552        C  0.33388462  0.17213285  0.68841938    -0.26700
O553        O  0.32251630  0.19205211  0.55659594    -0.58600
H554        H  0.28287650  0.22834328  0.60547997     0.16000
O555        O  0.30890834  0.19313171  0.76069868    -0.60000
H556        H  0.34764699  0.15603937  0.71182694     0.14400
H557        H  0.36133057  0.08105041  0.50142237     0.46300
H558        H  0.33702583  0.21059943  0.54937680     0.41700
H559        H  0.32621828  0.20647445  0.77348919     0.45100
H560        H  0.40832990  0.19207311  0.63658222     0.36600
C561        C  0.51365361  0.28414892  0.50587002    -0.27700
C562        C  0.50586086  0.26771422  0.46183726     0.01900
C563        C  0.49858894  0.28710639  0.41982356     0.30000
C564        C  0.49829197  0.32264610  0.42280029    -0.19500
C565        C  0.50549030  0.33924936  0.46734003    -0.28900
C566        C  0.51382711  0.31946150  0.50884250     0.44100
C567        C  0.50412415  0.23029564  0.46163691     0.05300
O568        O  0.49018290  0.27152367  0.37661261    -0.57400
H569        H  0.49179091  0.33714421  0.39046842     0.18200
O570        O  0.52205570  0.33420463  0.55278138    -0.64100
H571        H  0.51959262  0.26941949  0.53830411     0.16600
C572        C  0.52275588  0.21054827  0.43073614     0.28900
C573        C  0.52161453  0.17507685  0.43360188    -0.25000
C574        C  0.50282919  0.15899105  0.46838728    -0.24300
C575        C  0.48404253  0.17887541  0.49899187     0.40300
C576        C  0.48477373  0.21419002  0.49537445    -0.26700
O577        O  0.54299527  0.22563787  0.39917068    -0.58600
H578        H  0.53634094  0.16016439  0.41004903     0.16000
O579        O  0.46500730  0.16407390  0.53282406    -0.60000
H580        H  0.47039378  0.22915592  0.51944409     0.14400
H581        H  0.54412875  0.33812948  0.54995036     0.46300
H582        H  0.56096215  0.23076165  0.41975849     0.41700
H583        H  0.44588323  0.15994830  0.51470449     0.45100
H584        H  0.50791855  0.27363552  0.35436482     0.36600
C585        C  0.51575775  0.71485129  0.48918162    -0.27700
C586        C  0.50139446  0.73069966  0.52926325     0.01900
C587        C  0.48768593  0.71062762  0.56604034     0.30000
C588        C  0.48833212  0.67515167  0.56216311    -0.19500
C589        C  0.50233931  0.65922690  0.52164200    -0.28900
C590        C  0.51618288  0.67952181  0.48496480     0.44100
C591        C  0.49948282  0.76819630  0.53029186     0.05300
O592        O  0.47199408  0.72551210  0.60410827    -0.57400
H593        H  0.47713513  0.66012465  0.59031945     0.18200
O594        O  0.53088770  0.66514831  0.44544460    -0.64100
H595        H  0.52652697  0.73002161  0.46071852     0.16600
C596        C  0.51040440  0.78729743  0.57053849     0.28900
C597        C  0.50918233  0.82283174  0.56917651    -0.25000
C598        C  0.49773476  0.83975070  0.52749635    -0.24300
C599        C  0.48613326  0.82043736  0.48775195     0.40300
C600        C  0.48725560  0.78508454  0.48933535    -0.26700
O601        O  0.52317291  0.77154499  0.61061740    -0.58600
H602        H  0.51824945  0.83715419  0.59997692     0.16000
O603        O  0.47380041  0.83576975  0.44688564    -0.60000
H604        H  0.47854700  0.77070837  0.45828625     0.14400
H605        H  0.51618948  0.66590808  0.41781389     0.46300
H606        H  0.54511258  0.77057792  0.60321950     0.41700
H607        H  0.45300040  0.84225619  0.45685494     0.45100
H608        H  0.48364404  0.72024526  0.63446015     0.36600
C609        C  0.69476744  0.66320641  0.35601908    -0.27700
C610        C  0.66381146  0.66784982  0.34702547     0.01900
C611        C  0.65445444  0.69597283  0.31854492     0.30000
C612        C  0.67606059  0.71722441  0.29647059    -0.19500
C613        C  0.70706547  0.71161167  0.30376179    -0.28900
C614        C  0.71622771  0.68502240  0.33529778     0.44100
C615        C  0.64184326  0.64266419  0.36679867     0.05300
O616        O  0.62429363  0.70342235  0.31350279    -0.57400
H617        H  0.66849457  0.73764084  0.27270515     0.18200
O618        O  0.74624960  0.67971740  0.34527755    -0.64100
H619        H  0.70245425  0.64209475  0.37839911     0.16600
C620        C  0.61974860  0.62776969  0.33610103     0.28900
C621        C  0.59932677  0.60420224  0.35563658    -0.25000
C622        C  0.60145566  0.59367778  0.40505740    -0.24300
C623        C  0.62422454  0.60742829  0.43532665     0.40300
C624        C  0.64395092  0.63200553  0.41632390    -0.26700
O625        O  0.61835529  0.63540382  0.28666525    -0.58600
H626        H  0.58209575  0.59358157  0.33175063     0.16000
O627        O  0.62634042  0.59839112  0.48419814    -0.60000
H628        H  0.66084790  0.64294934  0.44050779     0.14400
H629        H  0.75021238  0.69245624  0.37622358     0.46300
H630        H  0.62940293  0.61680890  0.26980081     0.41700
H631        H  0.64210824  0.58050688  0.48528672     0.45100
H632        H  0.61997771  0.70211337  0.27751777     0.36600
C633        C  0.35175297  0.68355563  0.29164491    -0.27700
C634        C  0.34235456  0.66606683  0.33432737     0.01900
C635        C  0.31314497  0.67183950  0.35325911     0.30000
C636        C  0.29356843  0.69405601  0.32876470    -0.19500
C637        C  0.30274779  0.71089471  0.28559484    -0.28900
C638        C  0.33215736  0.70590747  0.26730470     0.44100
C639        C  0.36335892  0.64205995  0.35873994     0.05300
O640        O  0.30394401  0.65668267  0.39645390    -0.57400
H641        H  0.27098096  0.69797542  0.34323940     0.18200
O642        O  0.34135642  0.72140533  0.22442072    -0.64100
H643        H  0.37415138  0.67930908  0.27660866     0.16600
C644        C  0.35534170  0.60786831  0.36698379     0.28900
C645        C  0.37587629  0.58570513  0.38951985    -0.25000
C646        C  0.40497069  0.59679640  0.40262758    -0.24300
C647        C  0.41290674  0.63108384  0.39424213     0.40300
C648        C  0.39218531  0.65329005  0.37252203    -0.26700
O649        O  0.32789133  0.59554791  0.35175404    -0.58600
H650        H  0.36936364  0.55947227  0.39517829     0.16000
O651        O  0.44089930  0.64325603  0.40694401    -0.60000
H652        H  0.39866927  0.67948608  0.36637932     0.14400
H653        H  0.35300865  0.74158114  0.23519515     0.46300
H654        H  0.33010432  0.59167234  0.31568115     0.41700
H655        H  0.43898505  0.65051995  0.44192362     0.45100
H656        H  0.28784644  0.64047505  0.38683520     0.36600
C657        C  0.33804792  0.32018253  0.68441557    -0.27700
C658        C  0.33455010  0.33219283  0.63583119     0.01900
C659        C  0.30921446  0.32183650  0.60810537     0.30000
C660        C  0.28746517  0.30049727  0.62954550    -0.19500
C661        C  0.29085958  0.28901984  0.67827016    -0.28900
C662        C  0.31636317  0.29878669  0.70565437     0.44100
C663        C  0.35729999  0.35587516  0.61491980     0.05300
O664        O  0.30616721  0.33154050  0.55959902    -0.57400
H665        H  0.26785119  0.29301075  0.60822164     0.18200
O666        O  0.31964934  0.28849333  0.75380287    -0.64100
H667        H  0.35734672  0.32799164  0.70626106     0.16600
C668        C  0.34888668  0.38812926  0.59715640     0.28900
C669        C  0.37082749  0.41035136  0.57851627    -0.25000
C670        C  0.40154454  0.40120508  0.57775196    -0.24300
C671        C  0.40984809  0.36860547  0.59524782     0.40300
C672        C  0.38785618  0.34651744  0.61400844    -0.26700
O673        O  0.31931309  0.39849004  0.59875596    -0.58600
H674        H  0.36375273  0.43510934  0.56549468     0.16000
O675        O  0.43933419  0.35783165  0.59410104    -0.60000
H676        H  0.39466465  0.32176608  0.62749658     0.14400
H677        H  0.33241402  0.26784872  0.75213103     0.46300
H678        H  0.31666076  0.40885029  0.63189748     0.41700
H679        H  0.44252848  0.34903081  0.56012759     0.45100
H680        H  0.28809212  0.34642267  0.55862869     0.36600
C681        C  0.80676430  0.16605719  0.86491151    -0.27700
C682        C  0.83778938  0.16875732  0.85438172     0.01900
C683        C  0.84749686  0.19470204  0.82181495     0.30000
C684        C  0.82631277  0.21580694  0.79843413    -0.19500
C685        C  0.79527291  0.21238942  0.80811719    -0.28900
C686        C  0.78576036  0.18793683  0.84295604     0.44100
C687        C  0.85948461  0.14351146  0.87563912     0.05300
O688        O  0.87762143  0.19940714  0.81194020    -0.57400
H689        H  0.83414386  0.23444726  0.77189296     0.18200
O690        O  0.75577880  0.18471140  0.85507979    -0.64100
H691        H  0.79855144  0.14631304  0.88932941     0.16600
C692        C  0.85855416  0.13410970  0.92609915     0.28900
C693        C  0.87887407  0.10982258  0.94463752    -0.25000
C694        C  0.90056157  0.09477643  0.91378555    -0.24300
C695        C  0.90127430  0.10375052  0.86333380     0.40300
C696        C  0.88082783  0.12769089  0.84465912    -0.26700
O697        O  0.83900895  0.14988317  0.95815445    -0.58600
H698        H  0.87834049  0.10359791  0.98367309     0.16000
O699        O  0.92177741  0.08908305  0.83179553    -0.60000
H700        H  0.88150291  0.13364766  0.80555828     0.14400
H701        H  0.75188895  0.20279612  0.87981141     0.46300
H702        H  0.82455018  0.13206478  0.96880424     0.41700
H703        H  0.91245807  0.06727455  0.82165292     0.45100
H704        H  0.88571083  0.21166195  0.84110667     0.36600
C705        C  0.83537942  0.33323623  0.79353573    -0.27700
C706        C  0.83970266  0.33265241  0.84483330     0.01900
C707        C  0.82312429  0.30958820  0.87394855     0.30000
C708        C  0.80168146  0.28828777  0.85172786    -0.19500
C709        C  0.79694745  0.28935804  0.80039754    -0.28900
C710        C  0.81423846  0.31180260  0.77124955     0.44100
C711        C  0.86174934  0.35632951  0.86699081     0.05300
O712        O  0.82782269  0.30764201  0.92397871    -0.57400
H713        H  0.78855108  0.27114088  0.87457033     0.18200
O714        O  0.81114762  0.31222810  0.72075021    -0.64100
H715        H  0.84831359  0.35061161  0.77073114     0.16600
C716        C  0.89260841  0.35363627  0.85551241     0.28900
C717        C  0.91299053  0.37785276  0.87316614    -0.25000
C718        C  0.90317402  0.40517752  0.90279029    -0.24300
C719        C  0.87205876  0.40756059  0.91455014     0.40300
C720        C  0.85172199  0.38310399  0.89691376    -0.26700
O721        O  0.90304939  0.32743778  0.82676007    -0.58600
H722        H  0.93663032  0.37507215  0.86351111     0.16000
O723        O  0.86122925  0.43325205  0.94384957    -0.60000
H724        H  0.82792050  0.38543405  0.90578674     0.14400
H725        H  0.79966080  0.33321824  0.71321057     0.46300
H726        H  0.90486994  0.30780586  0.84953838     0.41700
H727        H  0.85433562  0.45105989  0.92051067     0.45100
H728        H  0.84352958  0.28990169  0.92819689     0.36600
C729        C  0.65469653  0.18362722  0.70377340    -0.27700
C730        C  0.66199804  0.16610646  0.66012544     0.01900
C731        C  0.68998715  0.17232681  0.63694872     0.30000
C732        C  0.71071128  0.19474192  0.65859485    -0.19500
C733        C  0.70371022  0.21138179  0.70300107    -0.28900
C734        C  0.67535290  0.20620535  0.72517075     0.44100
C735        C  0.64014511  0.14160187  0.63892845     0.05300
O736        O  0.69677903  0.15738022  0.59244480    -0.57400
H737        H  0.73240890  0.19893180  0.64097490     0.18200
O738        O  0.66827870  0.22191968  0.76893465    -0.64100
H739        H  0.63316589  0.17924308  0.72182300     0.16600
C740        C  0.64784260  0.10721735  0.63198592     0.28900
C741        C  0.62698943  0.08476528  0.61071981    -0.25000
C742        C  0.59805178  0.09595932  0.59678816    -0.24300
C743        C  0.59043367  0.13047983  0.60408817     0.40300
C744        C  0.61126807  0.15278578  0.62545232    -0.26700
O745        O  0.67556907  0.09522667  0.64639146    -0.58600
H746        H  0.63333835  0.05841729  0.60582140     0.16000
O747        O  0.56292703  0.14299371  0.58945628    -0.60000
H748        H  0.60507180  0.17917023  0.63055321     0.14400
H749        H  0.65430191  0.24056823  0.75981948     0.46300
H750        H  0.67311687  0.08897524  0.68170414     0.41700
H751        H  0.56569500  0.14964045  0.55435230     0.45100
H752        H  0.71294390  0.14067369  0.59971030     0.36600
C753        C  0.64797544  0.38061966  0.60914549    -0.27700
C754        C  0.63637319  0.35388188  0.63767034     0.01900
C755        C  0.60509489  0.35182338  0.64581644     0.30000
C756        C  0.58582950  0.37620780  0.62532390    -0.19500
C757        C  0.59720747  0.40324447  0.59646854    -0.28900
C758        C  0.62879718  0.40537153  0.58903328     0.44100
C759        C  0.65735193  0.32930961  0.66076150     0.05300
O760        O  0.59314449  0.32606521  0.67385096    -0.57400
H761        H  0.56179205  0.37366985  0.63202852     0.18200
O762        O  0.64127680  0.43119706  0.56180826    -0.64100
H763        H  0.67213108  0.38260896  0.60313894     0.16600
C764        C  0.67435772  0.30650385  0.63184891     0.28900
C765        C  0.69625035  0.28582435  0.65418985    -0.25000
C766        C  0.70126838  0.28741856  0.70544210    -0.24300
C767        C  0.68333399  0.30930760  0.73445704     0.40300
C768        C  0.66156218  0.32999080  0.71209591    -0.26700
O769        O  0.67014382  0.30475863  0.58166584    -0.58600
H770        H  0.70986634  0.26918652  0.63134615     0.16000
O771        O  0.68750034  0.31123762  0.78464349    -0.60000
H772        H  0.64848621  0.34731794  0.73472935     0.14400
H773        H  0.64704378  0.44873750  0.58635804     0.46300
H774        H  0.65162047  0.29090926  0.57718399     0.41700
H775        H  0.67165352  0.29648421  0.79917468     0.45100
H776        H  0.58762864  0.30807291  0.64984864     0.36600
loop_ 
_geom_bond_atom_site_label_1 
_geom_bond_atom_site_label_2 
_geom_bond_distance 
_geom_bond_site_symmetry_2 
_ccdc_geom_bond_type 
C1            C2   1.410       .  A
C1            C6   1.403       .  A
C1          C766   1.487       .  S
C2            C3   1.403       .  A
C2          C733   1.478       .  S
C3            C4   1.407       .  A
C3            H8   1.085       .  S
C4            C5   1.417       .  A
C4          C685   1.493       .  S
C5            C6   1.407       .  A
C5          C709   1.483       .  S
C6            H7   1.085       .  S
Zr9          O10   2.437       .  S
Zr9          O11   2.408       .  S
Zr9          O12   2.417       .  S
Zr9          O15   2.409       .  S
Zr9          O17   2.374       .  S
Zr9          O18   2.376       .  S
Zr9          O19   2.395       .  S
Zr9          O20   2.395       .  S
O10          H66   0.990       .  S
O10          H74   0.990       .  S
O11          C31   1.280       .  A
O12          C33   1.282       .  A
O13         Zr23   2.456       .  S
O13          C32   1.289       .  A
O14         Zr22   2.444       .  S
O14          C33   1.288       .  A
O15          C32   1.282       .  A
O16         Zr24   2.438       .  S
O16          C31   1.285       .  A
O17         Zr22   2.385       .  S
O17         Zr24   2.376       .  S
O18         Zr23   2.382       .  S
O18         Zr24   2.371       .  S
O18          H53   0.965       .  S
O19         Zr22   2.397       .  S
O19         Zr39   2.401       .  S
O19          H56   0.967       .  S
O20         Zr23   2.393       .  S
O20         Zr39   2.399       .  S
Zr21         O46   2.440       .  S
Zr21         O40   2.410       .  S
Zr21         O48   2.414       .  S
Zr21         O36   2.418       .  S
Zr21         O27   2.396       .  S
Zr21         O28   2.394       .  S
Zr21         O29   2.372       .  S
Zr21         O30   2.380       .  S
Zr22         O41   2.437       .  S
Zr22         O34   2.434       .  S
Zr22         O35   2.436       .  S
Zr22         O28   2.398       .  S
Zr22         O29   2.383       .  S
Zr23         O25   2.435       .  S
Zr23         O47   2.436       .  S
Zr23         O49   2.444       .  S
Zr23         O27   2.401       .  S
Zr23         O30   2.388       .  S
Zr24         O50   2.436       .  S
Zr24         O51   2.437       .  S
Zr24         O26   2.436       .  S
Zr24         O27   2.398       .  S
Zr24         O28   2.398       .  S
O25          H62   0.990       .  S
O26          H57   0.990       .  S
O26          H71   0.990       .  S
O28          H54   0.967       .  S
O29         Zr39   2.371       .  S
O30         Zr39   2.369       .  S
O30          H55   0.966       .  S
C31         C565   1.484       .  S
C32         C757   1.494       .  S
C33         C670   1.489       .  S
O34          H70   0.990       .  S
O35          C37   1.286       .  A
O36          C37   1.283       .  A
C37         C646   1.482       .  S
O38         Zr39   2.438       .  S
O38          H67   0.990       .  S
Zr39         O42   2.436       .  S
Zr39         O43   2.440       .  S
Zr39         O44   2.436       .  S
O40          C45   1.281       .  A
O41          H58   0.990       .  S
O41          H73   0.990       .  S
O42          H59   0.990       .  S
O43          H63   0.990       .  S
O43          H72   0.990       .  S
O44          C45   1.285       .  A
C45         C589   1.481       .  S
O46          H65   0.990       .  S
O46          H69   0.990       .  S
O47          H61   0.990       .  S
O47          H68   0.990       .  S
O48          C52   1.282       .  A
O49          C52   1.287       .  A
O50          H60   0.990       .  S
O51          H64   0.990       .  S
C52         C622   1.474       .  S
Zr75         O76   2.438       .  S
Zr75         O77   2.403       .  S
Zr75         O78   2.416       .  S
Zr75         O81   2.417       .  S
Zr75         O83   2.377       .  S
Zr75         O84   2.378       .  S
Zr75         O85   2.396       .  S
Zr75         O86   2.395       .  S
O76         H132   0.991       .  S
O76         H140   0.990       .  S
O77          C97   1.279       .  A
O78          C99   1.282       .  A
O79         Zr89   2.455   1_565  S
O79          C98   1.289       .  A
O80         Zr88   2.449       .  S
O80          C99   1.287       .  A
O81          C98   1.283       .  A
O82         Zr90   2.438       .  S
O82          C97   1.285       .  A
O83         Zr88   2.390       .  S
O83         Zr90   2.373       .  S
O84         Zr89   2.385   1_565  S
O84         Zr90   2.372       .  S
O84         H119   0.966       .  S
O85         Zr88   2.401       .  S
O85        Zr105   2.394   1_565  S
O85         H122   0.967       .  S
O86         Zr89   2.400   1_565  S
O86        Zr105   2.403   1_565  S
Zr87        O112   2.438       .  S
Zr87        O106   2.415       .  S
Zr87        O114   2.422       .  S
Zr87        O102   2.421       .  S
Zr87         O93   2.399       .  S
Zr87         O94   2.398       .  S
Zr87         O95   2.376       .  S
Zr87         O96   2.379       .  S
Zr88        O107   2.436   1_565  S
Zr88        O100   2.437       .  S
Zr88        O101   2.446   1_565  S
Zr88         O94   2.398   1_565  S
Zr88         O95   2.388   1_565  S
Zr89         O91   2.434       .  S
Zr89        O113   2.436   1_545  S
Zr89        O115   2.450       .  S
Zr89         O93   2.400       .  S
Zr89         O96   2.387       .  S
Zr90        O116   2.435       .  S
Zr90        O117   2.436       .  S
Zr90         O92   2.437       .  S
Zr90         O93   2.407   1_565  S
Zr90         O94   2.395   1_565  S
O91         H128   0.990       .  S
O92         H123   0.990       .  S
O92         H137   0.990       .  S
O94         H120   0.968       .  S
O95        Zr105   2.371       .  S
O96        Zr105   2.374       .  S
O96         H121   0.965       .  S
C97         C598   1.478       .  S
C98         C526   1.495       .  S
C99         C493   1.493       .  S
O100        H136   0.990       .  S
O101        C103   1.288       .  A
O102        C103   1.284       .  A
C103        C742   1.486       .  S
O104       Zr105   2.438       .  S
O104        H133   0.990       .  S
Zr105       O108   2.437       .  S
Zr105       O109   2.442       .  S
Zr105       O110   2.433       .  S
O106        C111   1.282       .  A
O107        H124   0.990       .  S
O107        H139   0.990       .  S
O108        H125   0.990       .  S
O109        H129   0.990       .  S
O109        H138   0.989       .  S
O110        C111   1.283       .  A
C111        C574   1.474       .  S
O112        H131   0.990       .  S
O112        H135   0.990       .  S
O113        H127   0.990       .  S
O113        H134   0.990       .  S
O114        C118   1.285       .  A
O115        C118   1.288       .  A
O116        H126   0.990       .  S
O117        H130   0.989       .  S
C118        C541   1.494       .  S
C141        C142   1.408       .  A
C141        C146   1.400       .  A
C141        C661   1.476       .  S
C142        C143   1.402       .  A
C142        C550   1.482       .  S
C143        C144   1.405       .  A
C143        H148   1.085       .  S
C144        C145   1.419       .  A
C144        C469   1.485       .  S
C145        C146   1.407       .  A
C145        C445   1.489       .  S
C146        H147   1.085       .  S
Zr149       O150   2.437   1_455  S
Zr149       O151   2.401       .  S
Zr149       O152   2.411       .  S
Zr149       O155   2.416   1_455  S
Zr149       O157   2.374   1_554  S
Zr149       O158   2.375   1_454  S
Zr149       O159   2.396       .  S
Zr149       O160   2.391   1_455  S
O150        H206   0.990   1_655  S
O150        H214   0.990   1_655  S
O151        C171   1.280   1_554  A
O152        C173   1.281       .  A
O153       Zr163   2.444   1_554  S
O153        C172   1.287       .  A
O154       Zr162   2.447       .  S
O154        C173   1.289       .  A
O155        C172   1.283       .  A
O156       Zr164   2.445       .  S
O156        C171   1.286       .  A
O157       Zr162   2.387   1_556  S
O157       Zr164   2.365       .  S
O158       Zr163   2.385       .  S
O158       Zr164   2.368   1_655  S
O158        H193   0.966       .  S
O159       Zr162   2.403       .  S
O159       Zr179   2.393   1_455  S
O159        H196   0.967       .  S
O160       Zr163   2.398   1_554  S
O160       Zr179   2.400       .  S
Zr161       O186   2.441       .  S
Zr161       O180   2.427       .  S
Zr161       O188   2.419   1_455  S
Zr161       O176   2.413       .  S
Zr161       O167   2.400   1_455  S
Zr161       O168   2.400       .  S
Zr161       O169   2.375   1_556  S
Zr161       O170   2.376   1_456  S
Zr162       O181   2.435       .  S
Zr162       O174   2.435   1_554  S
Zr162       O175   2.456   1_554  S
Zr162       O168   2.396   1_554  S
Zr162       O169   2.386       .  S
Zr163       O165   2.434   1_556  S
Zr163       O187   2.435       .  S
Zr163       O189   2.444       .  S
Zr163       O167   2.397       .  S
Zr163       O170   2.385   1_556  S
Zr164       O190   2.434   1_455  S
Zr164       O191   2.435       .  S
Zr164       O166   2.439       .  S
Zr164       O167   2.410   1_455  S
Zr164       O168   2.396       .  S
O165        H202   0.990       .  S
O166        H197   0.990       .  S
O166        H211   0.990       .  S
O168        H194   0.967       .  S
O169       Zr179   2.375   1_455  S
O170       Zr179   2.372       .  S
O170        H195   0.965       .  S
C171        C382   1.482       .  S
C172        C406   1.490       .  S
C173        C421   1.490       .  S
O174        H210   0.990       .  S
O175        C177   1.289       .  A
O176        C177   1.282       .  A
C177        C454   1.478       .  S
O178       Zr179   2.439       .  S
O178        H207   0.990       .  S
Zr179       O182   2.436   1_655  S
Zr179       O183   2.439       .  S
Zr179       O184   2.426       .  S
O180        C185   1.284   1_456  A
O181        H198   0.990       .  S
O181        H213   0.990       .  S
O182        H199   0.990       .  S
O183        H203   0.990       .  S
O183        H212   0.990       .  S
O184        C185   1.283       .  A
C185        C349   1.479       .  S
O186        H205   0.990   1_455  S
O186        H209   0.990       .  S
O187        H201   0.990       .  S
O187        H208   0.990       .  S
O188        C192   1.284       .  A
O189        C192   1.287       .  A
O190        H200   0.990       .  S
O191        H204   0.990       .  S
C192        C718   1.490       .  S
Zr215       O216   2.438       .  S
Zr215       O217   2.415       .  S
Zr215       O218   2.420   1_455  S
Zr215       O221   2.428       .  S
Zr215       O223   2.382   1_454  S
Zr215       O224   2.382   1_554  S
Zr215       O225   2.402   1_455  S
Zr215       O226   2.395       .  S
O216        H272   0.990       .  S
O216        H280   0.990   1_455  S
O217        C237   1.282   1_554  A
O218        C239   1.283       .  A
O219       Zr229   2.444   1_565  S
O219        C238   1.287       .  A
O220       Zr228   2.440   1_565  S
O220        C239   1.287       .  A
O221        C238   1.285       .  A
O222       Zr230   2.431       .  S
O222        C237   1.283       .  A
O223       Zr228   2.390   1_566  S
O223       Zr230   2.369   1_655  S
O224       Zr229   2.390   1_566  S
O224       Zr230   2.369       .  S
O224        H259   0.966       .  S
O225       Zr228   2.400   1_565  S
O225       Zr245   2.393   1_665  S
O225        H262   0.968       .  S
O226       Zr229   2.397   1_565  S
O226       Zr245   2.396   1_565  S
Zr227       O252   2.440       .  S
Zr227       O246   2.419       .  S
Zr227       O254   2.421   1_655  S
Zr227       O242   2.420       .  S
Zr227       O233   2.392   1_655  S
Zr227       O234   2.396       .  S
Zr227       O235   2.378   1_556  S
Zr227       O236   2.377   1_656  S
Zr228       O247   2.436       .  S
Zr228       O240   2.436   1_544  S
Zr228       O241   2.456   1_554  S
Zr228       O234   2.394   1_554  S
Zr228       O235   2.380       .  S
Zr229       O231   2.435       .  S
Zr229       O253   2.435   1_544  S
Zr229       O255   2.447   1_554  S
Zr229       O233   2.393   1_554  S
Zr229       O236   2.384       .  S
Zr230       O256   2.436       .  S
Zr230       O257   2.435   1_455  S
Zr230       O232   2.436   1_455  S
Zr230       O233   2.397   1_565  S
Zr230       O234   2.397   1_465  S
O231        H268   0.990       .  S
O232        H263   0.990       .  S
O232        H277   0.990       .  S
O234        H260   0.967       .  S
O235       Zr245   2.377   1_655  S
O236       Zr245   2.380       .  S
O236        H261   0.965       .  S
C237        C373   1.476       .  S
C238        C334   1.474       .  S
C239        C301   1.474       .  S
O240        H276   0.990       .  S
O241        C243   1.289       .  A
O242        C243   1.282       .  A
C243        C694   1.482       .  S
O244       Zr245   2.441       .  S
O244        H273   0.990       .  S
Zr245       O248   2.437   1_455  S
Zr245       O249   2.440       .  S
Zr245       O250   2.421   1_455  S
O246        C251   1.284   1_556  A
O247        H264   0.989       .  S
O247        H279   0.991       .  S
O248        H265   0.990       .  S
O249        H269   0.990       .  S
O249        H278   0.989       .  S
O250        C251   1.282       .  A
C251        C358   1.482       .  S
O252        H271   0.990   1_655  S
O252        H275   0.990       .  S
O253        H267   0.990       .  S
O253        H274   0.990       .  S
O254        C258   1.283       .  A
O255        C258   1.288       .  A
O256        H266   0.990       .  S
O257        H270   0.990   1_655  S
C258        C478   1.493       .  S
C281        C282   1.412       .  A
C281        C286   1.404       .  A
C281        C517   1.489       .  S
C282        C283   1.401       .  A
C282        C637   1.477       .  S
C283        C284   1.403       .  A
C283        H288   1.085       .  S
C284        C285   1.416       .  A
C284        C430   1.486       .  S
C285        C286   1.407       .  A
C285        C325   1.488       .  S
C286        H287   1.084       .  S
C289        C290   1.417       .  A
C289        C294   1.402       .  A
C289        C502   1.482       .  S
C290        C291   1.405       .  A
C290        C613   1.488       .  S
C291        C292   1.401       .  A
C291        H296   1.085       .  S
C292        C293   1.411       .  A
C292        C397   1.476       .  S
C293        C294   1.401       .  A
C293        C310   1.485       .  S
C294        H295   1.085       .  S
C297        C298   1.407       .  A
C297        C302   1.400       .  A
C297        H307   1.083       .  S
C298        C299   1.412       .  A
C298        C303   1.489       .  S
C299        C300   1.398       .  A
C299        O304   1.372       .  S
C300        C301   1.401       .  A
C300        H305   1.084       .  S
C301        C302   1.409       .  A
C302        O306   1.372       .  S
C303        C308   1.412       .  A
C303        C312   1.405       .  A
O304        H320   0.991       .  S
O306        H317   0.992       .  S
C308        C309   1.401       .  A
C308        O313   1.371       .  S
C309        C310   1.404       .  A
C309        H314   1.083       .  S
C310        C311   1.409       .  A
C311        C312   1.396       .  A
C311        O315   1.372       .  S
C312        H316   1.083       .  S
O313        H318   0.992       .  S
O315        H319   0.992       .  S
C321        C322   1.408       .  A
C321        C326   1.402       .  A
C321        H331   1.083       .  S
C322        C323   1.411       .  A
C322        C327   1.493       .  S
C323        C324   1.400       .  A
C323        O328   1.373       .  S
C324        C325   1.403       .  A
C324        H329   1.084       .  S
C325        C326   1.409       .  A
C326        O330   1.371       .  S
C327        C332   1.414       .  A
C327        C336   1.407       .  A
O328        H344   0.992       .  S
O330        H341   0.992       .  S
C332        C333   1.401       .  A
C332        O337   1.371       .  S
C333        C334   1.402       .  A
C333        H338   1.084       .  S
C334        C335   1.406       .  A
C335        C336   1.401       .  A
C335        O339   1.372       .  S
C336        H340   1.083       .  S
O337        H342   0.992       .  S
O339        H343   0.992       .  S
C345        C346   1.402   1_455  A
C345        C350   1.396   1_554  A
C345        H355   1.084   1_554  S
C346        C347   1.407       .  A
C346        C351   1.478       .  S
C347        C348   1.402       .  A
C347        O352   1.372       .  S
C348        C349   1.407       .  A
C348        H353   1.084       .  S
C349        C350   1.410   1_654  A
C350        O354   1.372       .  S
C351        C356   1.405   1_554  A
C351        C360   1.403   1_655  A
O352        H368   0.992       .  S
O354        H365   0.992       .  S
C356        C357   1.394       .  A
C356        O361   1.372       .  S
C357        C358   1.405   1_556  A
C357        H362   1.084       .  S
C358        C359   1.415   1_655  A
C359        C360   1.402       .  A
C359        O363   1.372       .  S
C360        H364   1.084       .  S
O361        H366   0.992       .  S
O363        H367   0.991       .  S
C369        C370   1.404   1_654  A
C369        C374   1.396       .  A
C369        H379   1.083       .  S
C370        C371   1.409       .  A
C370        C375   1.483       .  S
C371        C372   1.400       .  A
C371        O376   1.372       .  S
C372        C373   1.405       .  A
C372        H377   1.084       .  S
C373        C374   1.410   1_456  A
C374        O378   1.372       .  S
C375        C380   1.407   1_556  A
C375        C384   1.405   1_455  A
O376        H392   0.992       .  S
O378        H389   0.992       .  S
C380        C381   1.395       .  A
C380        O385   1.373       .  S
C381        C382   1.406   1_554  A
C381        H386   1.083       .  S
C382        C383   1.410   1_455  A
C383        C384   1.402       .  A
C383        O387   1.371       .  S
C384        H388   1.083       .  S
O385        H390   0.993       .  S
O387        H391   0.992       .  S
C393        C394   1.404       .  A
C393        C398   1.402       .  A
C393        H403   1.083       .  S
C394        C395   1.407       .  A
C394        C399   1.476       .  S
C395        C396   1.395       .  A
C395        O400   1.372       .  S
C396        C397   1.400       .  A
C396        H401   1.084       .  S
C397        C398   1.408       .  A
C398        O402   1.371       .  S
C399        C404   1.405       .  A
C399        C408   1.398       .  A
O400        H416   0.991       .  S
O402        H413   0.992       .  S
C404        C405   1.402       .  A
C404        O409   1.371       .  S
C405        C406   1.409       .  A
C405        H410   1.083       .  S
C406        C407   1.417       .  A
C407        C408   1.397       .  A
C407        O411   1.372       .  S
C408        H412   1.084       .  S
O409        H414   0.991       .  S
O411        H415   0.992       .  S
C417        C418   1.396       .  A
C417        C422   1.398       .  A
C417        H427   1.084       .  S
C418        C419   1.404       .  A
C418        C423   1.473       .  S
C419        C420   1.401       .  A
C419        O424   1.371       .  S
C420        C421   1.408       .  A
C420        H425   1.083       .  S
C421        C422   1.419       .  A
C422        O426   1.372       .  S
C423        C428   1.407       .  A
C423        C432   1.399       .  A
O424        H440   0.992       .  S
O426        H437   0.991       .  S
C428        C429   1.402       .  A
C428        O433   1.372       .  S
C429        C430   1.405       .  A
C429        H434   1.083       .  S
C430        C431   1.412       .  A
C431        C432   1.396       .  A
C431        O435   1.372       .  S
C432        H436   1.084       .  S
O433        H438   0.992       .  S
O435        H439   0.991       .  S
C441        C442   1.408       .  A
C441        C446   1.403       .  A
C441        H451   1.083       .  S
C442        C443   1.409       .  A
C442        C447   1.492       .  S
C443        C444   1.398       .  A
C443        O448   1.372       .  S
C444        C445   1.405       .  A
C444        H449   1.084       .  S
C445        C446   1.409       .  A
C446        O450   1.371       .  S
C447        C452   1.410       .  A
C447        C456   1.408       .  A
O448        H464   0.992       .  S
O450        H461   0.992       .  S
C452        C453   1.401       .  A
C452        O457   1.372       .  S
C453        C454   1.404       .  A
C453        H458   1.084       .  S
C454        C455   1.406       .  A
C455        C456   1.403       .  A
C455        O459   1.371       .  S
C456        H460   1.083       .  S
O457        H462   0.992       .  S
O459        H463   0.992       .  S
C465        C466   1.406       .  A
C465        C470   1.405       .  A
C465        H475   1.083       .  S
C466        C467   1.409       .  A
C466        C471   1.487       .  S
C467        C468   1.399       .  A
C467        O472   1.372       .  S
C468        C469   1.404       .  A
C468        H473   1.084       .  S
C469        C470   1.407       .  A
C470        O474   1.372       .  S
C471        C476   1.409       .  A
C471        C480   1.401       .  A
O472        H488   0.992       .  S
O474        H485   0.992       .  S
C476        C477   1.405       .  A
C476        O481   1.372       .  S
C477        C478   1.408       .  A
C477        H482   1.083       .  S
C478        C479   1.417       .  A
C479        C480   1.399       .  A
C479        O483   1.372       .  S
C480        H484   1.084       .  S
O481        H486   0.992       .  S
O483        H487   0.992       .  S
C489        C490   1.402       .  A
C489        C494   1.403       .  A
C489        H499   1.084       .  S
C490        C491   1.404       .  A
C490        C495   1.479       .  S
C491        C492   1.399       .  A
C491        O496   1.373       .  S
C492        C493   1.411       .  A
C492        H497   1.083       .  S
C493        C494   1.415       .  A
C494        O498   1.371       .  S
C495        C500   1.406       .  A
C495        C504   1.404       .  A
O496        H512   0.992       .  S
O498        H509   0.992       .  S
C500        C501   1.397       .  A
C500        O505   1.372       .  S
C501        C502   1.404       .  A
C501        H506   1.084       .  S
C502        C503   1.408       .  A
C503        C504   1.404       .  A
C503        O507   1.372       .  S
C504        H508   1.083       .  S
O505        H510   0.991       .  S
O507        H511   0.992       .  S
C513        C514   1.404       .  A
C513        C518   1.402       .  A
C513        H523   1.084       .  S
C514        C515   1.408       .  A
C514        C519   1.486       .  S
C515        C516   1.402       .  A
C515        O520   1.371       .  S
C516        C517   1.405       .  A
C516        H521   1.083       .  S
C517        C518   1.410       .  A
C518        O522   1.372       .  S
C519        C524   1.405       .  A
C519        C528   1.405       .  A
O520        H536   0.992       .  S
O522        H533   0.992       .  S
C524        C525   1.399       .  A
C524        O529   1.372       .  S
C525        C526   1.411       .  A
C525        H530   1.083       .  S
C526        C527   1.414       .  A
C527        C528   1.405       .  A
C527        O531   1.371       .  S
C528        H532   1.084       .  S
O529        H534   0.992       .  S
O531        H535   0.992       .  S
C537        C538   1.403       .  A
C537        C542   1.404       .  A
C537        H547   1.084       .  S
C538        C539   1.404       .  A
C538        C543   1.482       .  S
C539        C540   1.397       .  A
C539        O544   1.372       .  S
C540        C541   1.410       .  A
C540        H545   1.083       .  S
C541        C542   1.416       .  A
C542        O546   1.371       .  S
C543        C548   1.409       .  A
C543        C552   1.402       .  A
O544        H560   0.992       .  S
O546        H557   0.992       .  S
C548        C549   1.403       .  A
C548        O553   1.371       .  S
C549        C550   1.404       .  A
C549        H554   1.083       .  S
C550        C551   1.407       .  A
C551        C552   1.398       .  A
C551        O555   1.372       .  S
C552        H556   1.084       .  S
O553        H558   0.992       .  S
O555        H559   0.992       .  S
C561        C562   1.399       .  A
C561        C566   1.393       .  A
C561        H571   1.084       .  S
C562        C563   1.406       .  A
C562        C567   1.476       .  S
C563        C564   1.402       .  A
C563        O568   1.372       .  S
C564        C565   1.407       .  A
C564        H569   1.083       .  S
C565        C566   1.416       .  A
C566        O570   1.372       .  S
C567        C572   1.408       .  A
C567        C576   1.402       .  A
O568        H584   0.991       .  S
O570        H581   0.992       .  S
C572        C573   1.400       .  A
C572        O577   1.371       .  S
C573        C574   1.405       .  A
C573        H578   1.084       .  S
C574        C575   1.410       .  A
C575        C576   1.395       .  A
C575        O579   1.372       .  S
C576        H580   1.084       .  S
O577        H582   0.992       .  S
O579        H583   0.992       .  S
C585        C586   1.402       .  A
C585        C590   1.397       .  A
C585        H595   1.084       .  S
C586        C587   1.407       .  A
C586        C591   1.480       .  S
C587        C588   1.402       .  A
C587        O592   1.372       .  S
C588        C589   1.406       .  A
C588        H593   1.083       .  S
C589        C590   1.413       .  A
C590        O594   1.373       .  S
C591        C596   1.409       .  A
C591        C600   1.401       .  A
O592        H608   0.992       .  S
O594        H605   0.992       .  S
C596        C597   1.401       .  A
C596        O601   1.371       .  S
C597        C598   1.404       .  A
C597        H602   1.083       .  S
C598        C599   1.414       .  A
C599        C600   1.394       .  A
C599        O603   1.373       .  S
C600        H604   1.084       .  S
O601        H606   0.992       .  S
O603        H607   0.992       .  S
C609        C610   1.403       .  A
C609        C614   1.397       .  A
C609        H619   1.083       .  S
C610        C611   1.412       .  A
C610        C615   1.488       .  S
C611        C612   1.403       .  A
C611        O616   1.373       .  S
C612        C613   1.404       .  A
C612        H617   1.083       .  S
C613        C614   1.410       .  A
C614        O618   1.372       .  S
C615        C620   1.411       .  A
C615        C624   1.406       .  A
O616        H632   0.993       .  S
O618        H629   0.992       .  S
C620        C621   1.398       .  A
C620        O625   1.371       .  S
C621        C622   1.402       .  A
C621        H626   1.084       .  S
C622        C623   1.407       .  A
C623        C624   1.400       .  A
C623        O627   1.372       .  S
C624        H628   1.083       .  S
O625        H630   0.991       .  S
O627        H631   0.992       .  S
C633        C634   1.406       .  A
C633        C638   1.401       .  A
C633        H643   1.084       .  S
C634        C635   1.408       .  A
C634        C639   1.482       .  S
C635        C636   1.399       .  A
C635        O640   1.373       .  S
C636        C637   1.402       .  A
C636        H641   1.084       .  S
C637        C638   1.405       .  A
C638        O642   1.371       .  S
C639        C644   1.410       .  A
C639        C648   1.401       .  A
O640        H656   0.991       .  S
O642        H653   0.991       .  S
C644        C645   1.400       .  A
C644        O649   1.372       .  S
C645        C646   1.405       .  A
C645        H650   1.084       .  S
C646        C647   1.414       .  A
C647        C648   1.397       .  A
C647        O651   1.372       .  S
C648        H652   1.084       .  S
O649        H654   0.992       .  S
O651        H655   0.992       .  S
C657        C658   1.405       .  A
C657        C662   1.399       .  A
C657        H667   1.084       .  S
C658        C659   1.410       .  A
C658        C663   1.484       .  S
C659        C660   1.402       .  A
C659        O664   1.373       .  S
C660        C661   1.401       .  A
C660        H665   1.084       .  S
C661        C662   1.404       .  A
C662        O666   1.371       .  S
C663        C668   1.409       .  A
C663        C672   1.402       .  A
O664        H680   0.992       .  S
O666        H677   0.991       .  S
C668        C669   1.400       .  A
C668        O673   1.371       .  S
C669        C670   1.406       .  A
C669        H674   1.083       .  S
C670        C671   1.417       .  A
C671        C672   1.400       .  A
C671        O675   1.372       .  S
C672        H676   1.084       .  S
O673        H678   0.991       .  S
O675        H679   0.992       .  S
C681        C682   1.405       .  A
C681        C686   1.400       .  A
C681        H691   1.082       .  S
C682        C683   1.415       .  A
C682        C687   1.498       .  S
C683        C684   1.404       .  A
C683        O688   1.371       .  S
C684        C685   1.404       .  A
C684        H689   1.083       .  S
C685        C686   1.411       .  A
C686        O690   1.372       .  S
C687        C692   1.414       .  A
C687        C696   1.407       .  A
O688        H704   0.992       .  S
O690        H701   0.992       .  S
C692        C693   1.406       .  A
C692        O697   1.372       .  S
C693        C694   1.402       .  A
C693        H698   1.084       .  S
C694        C695   1.409       .  A
C695        C696   1.402       .  A
C695        O699   1.372       .  S
C696        H700   1.083       .  S
O697        H702   0.992       .  S
O699        H703   0.992       .  S
C705        C706   1.400       .  A
C705        C710   1.397       .  A
C705        H715   1.084       .  S
C706        C707   1.407       .  A
C706        C711   1.477       .  S
C707        C708   1.402       .  A
C707        O712   1.371       .  S
C708        C709   1.404       .  A
C708        H713   1.083       .  S
C709        C710   1.409       .  A
C710        O714   1.372       .  S
C711        C716   1.404       .  A
C711        C720   1.401       .  A
O712        H728   0.992       .  S
O714        H725   0.992       .  S
C716        C717   1.397       .  A
C716        O721   1.372       .  S
C717        C718   1.410       .  A
C717        H722   1.083       .  S
C718        C719   1.416       .  A
C719        C720   1.402       .  A
C719        O723   1.371       .  S
C720        H724   1.084       .  S
O721        H726   0.992       .  S
O723        H727   0.992       .  S
C729        C730   1.404       .  A
C729        C734   1.401       .  A
C729        H739   1.083       .  S
C730        C731   1.408       .  A
C730        C735   1.482       .  S
C731        C732   1.402       .  A
C731        O736   1.373       .  S
C732        C733   1.402       .  A
C732        H737   1.084       .  S
C733        C734   1.404       .  A
C734        O738   1.371       .  S
C735        C740   1.409       .  A
C735        C744   1.400       .  A
O736        H752   0.992       .  S
O738        H749   0.992       .  S
C740        C741   1.402       .  A
C740        O745   1.372       .  S
C741        C742   1.406       .  A
C741        H746   1.083       .  S
C742        C743   1.415       .  A
C743        C744   1.399       .  A
C743        O747   1.372       .  S
C744        H748   1.084       .  S
O745        H750   0.992       .  S
O747        H751   0.992       .  S
C753        C754   1.402       .  A
C753        C758   1.403       .  A
C753        H763   1.084       .  S
C754        C755   1.403       .  A
C754        C759   1.480       .  S
C755        C756   1.399       .  A
C755        O760   1.372       .  S
C756        C757   1.412       .  A
C756        H761   1.083       .  S
C757        C758   1.414       .  A
C758        O762   1.371       .  S
C759        C764   1.408       .  A
C759        C768   1.401       .  A
O760        H776   0.992       .  S
O762        H773   0.992       .  S
C764        C765   1.403       .  A
C764        O769   1.372       .  S
C765        C766   1.405       .  A
C765        H770   1.083       .  S
C766        C767   1.410       .  A
C767        C768   1.400       .  A
C767        O771   1.372       .  S
C768        H772   1.084       .  S
O769        H774   0.992       .  S
O771        H775   0.991       .  S
