geometry optimzed in LAMMPS
_audit_creation_date              2020-11-30 
_audit_creation_method            'lammps2cif' 
_symmetry_space_group_name_H-M    'P1' 
_symmetry_Int_Tables_number       1 
_symmetry_cell_setting            triclinic 
loop_ 
_symmetry_equiv_pos_as_xyz 
  x,y,z 
_cell_length_a                    42.5713694 
_cell_length_b                    41.19522438262301 
_cell_length_c                    33.899474818912154 
_cell_angle_alpha                 90.30027480248292 
_cell_angle_beta                  89.89269007415022 
_cell_angle_gamma                 89.46641425140203 
loop_ 
_atom_site_label 
_atom_site_type_symbol 
_atom_site_fract_x 
_atom_site_fract_y 
_atom_site_fract_z 
_atom_site_charge 
N1          N  0.50010861  0.47356132  0.05148956    -0.35700
N2          N  0.45169727  0.00051319  0.50059357    -0.56300
N3          N  0.00044926  0.02873310  0.45097884    -0.35700
N4          N  0.04986171  0.00058665  0.50127377    -0.56300
C5          C  0.47421593  0.45771854  0.06471828     0.27900
C6          C  0.02575684  0.45647491  0.06410124     0.27900
C7          C  0.47455891  0.04520481  0.43825192     0.27900
C8          C  0.02577792  0.04639695  0.43993653     0.27900
C9          C  0.43198585  0.48671091  0.02659725     0.36500
C10         C  0.43271291  0.01463058  0.47328691     0.36500
C11         C  0.06841377  0.48436929  0.02622956     0.36500
C12         C  0.06847550  0.01595273  0.47481899     0.36500
C13         C  0.48367824  0.43042449  0.08552115    -0.21000
C14         C  0.01577268  0.42961060  0.08504012    -0.21000
C15         C  0.48365435  0.07352203  0.41966065    -0.21000
C16         C  0.01567174  0.07432937  0.42090186    -0.21000
C17         C  0.40095069  0.49168048  0.01555224    -0.22100
C18         C  0.40168982  0.00739139  0.48145855    -0.22100
C19         C  0.09953460  0.48913086  0.01558587    -0.22100
C20         C  0.09965243  0.00835404  0.48222810    -0.22100
C21         C  0.44205593  0.46578845  0.05765942    -0.17400
C22         C  0.05805949  0.46330034  0.05682659    -0.17400
C23         C  0.05794513  0.03825557  0.44562847    -0.17400
C24         C  0.44270151  0.03603007  0.44301066    -0.17400
H25         H  0.46913466  0.41181330  0.09828460     0.15500
H26         H  0.02990109  0.41021533  0.09733909     0.15500
H27         H  0.46879608  0.09240622  0.40749719     0.15500
H28         H  0.02977300  0.09400079  0.40978428     0.15500
H29         H  0.37995320  0.48248952  0.02930897     0.13800
H30         H  0.38094430  0.01464946  0.46530201     0.13800
H31         H  0.12052895  0.47948088  0.02916112     0.13800
H32         H  0.12022759  0.01628062  0.46637525     0.13800
H33         H  0.50028350  0.49572456  0.03708685     0.27000
H34         H  0.00090555  0.00567912  0.46333197     0.27000
O35         O  0.16632477  0.36003317  0.11613436    -0.56900
C36         C  0.16743976  0.44500286  0.17073414     0.75700
O37         O  0.07783739  0.43892301  0.11721017    -0.58100
C38         C  0.15799229  0.35273620  0.08148278     0.75700
C39         C  0.09364441  0.35589284  0.17482903     0.78100
Cd40       Cd  0.12528321  0.40342525  0.12603821     1.37500
O41         O  0.17070350  0.44075945  0.13383055    -0.56900
O42         O  0.11319762  0.37582129  0.18849274    -0.55700
C43         C  0.08188634  0.44467602  0.08082683     0.78000
O44         O  0.08617031  0.35995534  0.13905169    -0.58100
O45         O  0.14384055  0.43165571  0.18607074    -0.56600
O46         O  0.13765910  0.37143222  0.06641246    -0.56500
O47         O  0.10658674  0.43252942  0.06592429    -0.55700
O48         O  0.11624337  0.14100033  0.42733495    -0.56900
C49         C  0.16755474  0.05811854  0.33114567     0.75700
O50         O  0.07684121  0.06289748  0.38528042    -0.58100
C51         C  0.14493211  0.14572848  0.43459510     0.75700
C52         C  0.09956182  0.14909745  0.32297692     0.78100
Cd53       Cd  0.12308363  0.09899193  0.37654068     1.37500
O54         O  0.17125118  0.06409580  0.36756733    -0.56900
O55         O  0.12831308  0.14316342  0.32918676    -0.55700
C56         C  0.08139490  0.05666265  0.42146748     0.78000
O57         O  0.08045434  0.13051388  0.34036241    -0.58100
O58         O  0.14274662  0.06978366  0.31613835    -0.56600
O59         O  0.16432435  0.12836438  0.41515194    -0.56500
O60         O  0.10603714  0.06846757  0.43622502    -0.55700
N61         N  0.24968509  0.03082901  0.30067180    -0.35700
N62         N  0.29885265  0.00069889  0.25076043    -0.56300
N63         N  0.24910698  0.47133835  0.19983439    -0.35700
N64         N  0.20089413  0.00233302  0.25070236    -0.56300
C65         C  0.27541703  0.04739166  0.31298930     0.27900
C66         C  0.22393236  0.04773343  0.31341141     0.27900
C67         C  0.27477644  0.45462390  0.18654715     0.27900
C68         C  0.22339688  0.45493545  0.18725381     0.27900
C69         C  0.31773271  0.01669702  0.27643525     0.36500
C70         C  0.31710566  0.48403574  0.22306629     0.36500
C71         C  0.18185190  0.01770357  0.27722535     0.36500
C72         C  0.18130179  0.48289123  0.22693199     0.36500
C73         C  0.26571732  0.07505789  0.33333238    -0.21000
C74         C  0.23357546  0.07523921  0.33365112    -0.21000
C75         C  0.26507969  0.42739860  0.16577007    -0.21000
C76         C  0.23299764  0.42763898  0.16611835    -0.21000
C77         C  0.34889782  0.00975529  0.26748213    -0.22100
C78         C  0.34827694  0.49050719  0.23152133    -0.22100
C79         C  0.15080592  0.01049383  0.26901562    -0.22100
C80         C  0.15031627  0.48736224  0.23874859    -0.22100
C81         C  0.30756971  0.03894085  0.30633037    -0.17400
C82         C  0.19180645  0.03975880  0.30715019    -0.17400
C83         C  0.19132207  0.46269316  0.19496989    -0.17400
C84         C  0.30689368  0.46245087  0.19285647    -0.17400
H85         H  0.28014032  0.09406457  0.34561212     0.15500
H86         H  0.21909004  0.09437437  0.34623808     0.15500
H87         H  0.27946719  0.40832335  0.15288869     0.15500
H88         H  0.21853176  0.40875301  0.15361275     0.15500
H89         H  0.36985393  0.01773629  0.28238945     0.13800
H90         H  0.36911591  0.48266625  0.21582336     0.13800
H91         H  0.12995295  0.01834460  0.28473014     0.13800
H92         H  0.12924304  0.47800268  0.22534888     0.13800
H93         H  0.24972987  0.00815169  0.28700626     0.27000
H94         H  0.24909193  0.49374833  0.21414183     0.27000
O95         O  0.32715958  0.43817154  0.13234906    -0.56900
C96         C  0.35059595  0.35812662  0.06896027     0.75700
O97         O  0.42097116  0.44254332  0.11803458    -0.58100
C98         C  0.33106468  0.44431374  0.16871860     0.75700
C99         C  0.40064025  0.35244631  0.17425830     0.78100
Cd100      Cd  0.37564077  0.40420813  0.12432737     1.37500
O101        O  0.33284037  0.37088000  0.09482812    -0.56900
O102        O  0.41844959  0.36706080  0.15035499    -0.55700
C103        C  0.41800684  0.44746262  0.08124199     0.78000
O104        O  0.37278569  0.36300113  0.17639593    -0.58100
O105        O  0.37829114  0.36874916  0.06748916    -0.56600
O106        O  0.35617512  0.43324591  0.18362867    -0.56500
O107        O  0.39456493  0.43415885  0.06529222    -0.55700
O108        O  0.33684619  0.13301320  0.40287481    -0.56900
C109        C  0.33189696  0.05697609  0.32977341     0.75700
O110        O  0.42047935  0.12727469  0.33754324    -0.58100
C111        C  0.35608896  0.14898347  0.42354521     0.75700
C112        C  0.41886615  0.05365811  0.41806467     0.78100
Cd113      Cd  0.37740817  0.09661878  0.37232774     1.37500
O114        O  0.32830094  0.06381197  0.36606469    -0.56900
O115        O  0.39400269  0.06596234  0.43243574    -0.55700
C116        C  0.40165504  0.14250815  0.31515205     0.78000
O117        O  0.42351445  0.05917768  0.38169915    -0.58100
O118        O  0.35696305  0.06716221  0.31428842    -0.56600
O119        O  0.38427715  0.13914831  0.42239590    -0.56500
O120        O  0.37311074  0.13494643  0.31803388    -0.55700
C121        C  0.41142217  0.16954477  0.28919151    -0.11100
C122        C  0.39444055  0.17734094  0.25463823     0.04400
C123        C  0.39931696  0.20698153  0.23577028    -0.11600
C124        C  0.42067625  0.22954148  0.25075896     0.19300
C125        C  0.43889023  0.22121702  0.28389636    -0.08700
C126        C  0.43456228  0.19117131  0.30246140    -0.01600
H127        H  0.38528186  0.21312302  0.21018863     0.05800
C128        C  0.42083557  0.26259674  0.23357087     0.21200
H129        H  0.44770903  0.18579283  0.32900212     0.10900
C130        C  0.40488823  0.28770094  0.25353304    -0.15000
C131        C  0.39953049  0.31775326  0.23548532     0.03900
C132        C  0.41072373  0.32340428  0.19689345    -0.10300
C133        C  0.42827306  0.29881740  0.17780694    -0.00300
C134        C  0.43292700  0.26843451  0.19560574    -0.05500
H135        H  0.39528072  0.28337769  0.28264074     0.07000
H136        H  0.43669917  0.30250522  0.14800647     0.10300
Br137      Br  0.46839135  0.25103688  0.30603436    -0.05200
Br138      Br  0.36355519  0.14907364  0.23213919    -0.02100
Br139      Br  0.37627146  0.34998266  0.26476776     0.00700
Br140      Br  0.45433787  0.23487612  0.16640386    -0.04900
C141        C  0.34713294  0.17824026  0.44694314    -0.11100
C142        C  0.32123986  0.19847686  0.43708984     0.04400
C143        C  0.31728025  0.22857551  0.45602074    -0.11600
C144        C  0.33816635  0.23859372  0.48535386     0.19300
C145        C  0.36246701  0.21755483  0.49733766    -0.08700
C146        C  0.36706256  0.18793961  0.47782573    -0.01600
H147        H  0.29852402  0.24476001  0.44684057     0.05800
C148        C  0.33644654  0.27179292  0.00147313     0.21200
H149        H  0.38672424  0.17268397  0.48642839     0.10900
C150        C  0.31543166  0.27912178  0.03217468    -0.15000
C151        C  0.31765412  0.30845470  0.05312737     0.03900
C152        C  0.34113378  0.33103743  0.04280722    -0.10300
C153        C  0.36000212  0.32464656  0.00953460    -0.00300
C154        C  0.35804120  0.29527575  0.98920242    -0.05500
H155        H  0.29862938  0.26110240  0.04149818     0.07000
H156        H  0.37785180  0.34173311  0.00068698     0.10300
Br157      Br  0.39061080  0.22864540  0.03976629    -0.05200
Br158      Br  0.29162314  0.18799594  0.39646870    -0.02100
Br159      Br  0.29036842  0.31401078  0.09785409     0.00700
Br160      Br  0.38702804  0.28727106  0.44678102    -0.03700
C161        C  0.09005013  0.17694273  0.29738167    -0.11100
C162        C  0.06026636  0.19263635  0.29930095     0.04400
C163        C  0.05495868  0.22151673  0.27816913    -0.11600
C164        C  0.07878087  0.23521167  0.25517185     0.19300
C165        C  0.10796384  0.21919147  0.25234589    -0.08700
C166        C  0.11322896  0.19034018  0.27282972    -0.01600
H167        H  0.03254250  0.23391269  0.28064755     0.05800
C168        C  0.07448489  0.26747992  0.23669188     0.21200
H169        H  0.13621472  0.17897806  0.27060651     0.10900
C170        C  0.08323692  0.29513669  0.25808347    -0.15000
C171        C  0.08743342  0.32501144  0.23929819     0.03900
C172        C  0.08251668  0.32763747  0.19808657    -0.10300
C173        C  0.07095390  0.30044874  0.17756957    -0.00300
C174        C  0.06724912  0.27052819  0.19642260    -0.05500
H175        H  0.08879464  0.29297200  0.28914688     0.07000
H176        H  0.06691734  0.30171550  0.14607492     0.10300
Br177      Br  0.14223129  0.23720720  0.22301360    -0.05200
Br178      Br  0.02669371  0.17772282  0.33222039    -0.02100
Br179      Br  0.10138221  0.36043422  0.27173070     0.00700
Br180      Br  0.05512656  0.23372050  0.16534608    -0.03700
C181        C  0.16861216  0.32266869  0.06039533    -0.11100
C182        C  0.18415068  0.29643296  0.07941976     0.04400
C183        C  0.18616776  0.26590885  0.06067646    -0.11600
C184        C  0.17287790  0.26091141  0.02331575     0.19300
C185        C  0.15908557  0.28734990  0.00360870    -0.08700
C186        C  0.15766509  0.31784854  0.02169375    -0.01600
H187        H  0.19662789  0.24566279  0.57588180     0.05800
C188        C  0.16988197  0.22791556  0.50635477     0.21200
H189        H  0.14572695  0.33733268  0.00628502     0.10900
C190        C  0.14296145  0.21009869  0.51546560    -0.15000
C191        C  0.13540189  0.18202358  0.49415811     0.03900
C192        C  0.15494929  0.17138532  0.46275251    -0.10300
C193        C  0.18325263  0.18780069  0.45593734    -0.00300
C194        C  0.19070810  0.21591956  0.47736304    -0.05500
H195        H  0.12697875  0.21892795  0.53809882     0.07000
H196        H  0.19880250  0.17985563  0.43239486     0.10300
Br197      Br  0.13844286  0.28210715  0.95372033    -0.05200
Br198      Br  0.20077458  0.29939256  0.13195491    -0.02100
Br199      Br  0.09809915  0.15941354  0.50958886     0.00700
Br200      Br  0.22851547  0.23837908  0.46453019    -0.03700
N201        N  0.50017163  0.47342155  0.55143682    -0.35700
N202        N  0.45178066  0.00037684  0.00056837    -0.56300
N203        N  0.00052499  0.02881204  0.95093166    -0.35700
N204        N  0.04990667  0.00077489  0.00129571    -0.56300
C205        C  0.47428630  0.45753654  0.56461055     0.27900
C206        C  0.02571050  0.45628577  0.56407103     0.27900
C207        C  0.47458747  0.04506798  0.93820724     0.27900
C208        C  0.02582701  0.04653017  0.93993148     0.27900
C209        C  0.43205795  0.48640961  0.52633817     0.36500
C210        C  0.43279924  0.01437510  0.97316790     0.36500
C211        C  0.06834502  0.48429673  0.52627274     0.36500
C212        C  0.06852522  0.01612553  0.97483303     0.36500
C213        C  0.48376194  0.43028135  0.58547675    -0.21000
C214        C  0.01575307  0.42942889  0.58504772    -0.21000
C215        C  0.48363662  0.07343999  0.91970240    -0.21000
C216        C  0.01568726  0.07445518  0.92090798    -0.21000
C217        C  0.40103307  0.49127480  0.51517597    -0.22100
C218        C  0.40178912  0.00703522  0.98125857    -0.22100
C219        C  0.09946812  0.48916799  0.51572249    -0.22100
C220        C  0.09969957  0.00851122  0.98223578    -0.22100
C221        C  0.44212388  0.46552739  0.55744411    -0.17400
C222        C  0.05800611  0.46317470  0.55682699    -0.17400
C223        C  0.05799654  0.03842186  0.94563722    -0.17400
C224        C  0.44275280  0.03581869  0.94292659    -0.17400
H225        H  0.46922807  0.41165563  0.59822781     0.15500
H226        H  0.02990469  0.41007660  0.59740425     0.15500
H227        H  0.46874854  0.09232293  0.90759249     0.15500
H228        H  0.02976652  0.09414914  0.90980382     0.15500
H229        H  0.38003371  0.48197861  0.52881879     0.13800
H230        H  0.38105247  0.01418980  0.96501743     0.13800
H231        H  0.12046498  0.47957282  0.52934922     0.13800
H232        H  0.12027722  0.01641180  0.96636870     0.13800
H233        H  0.50032631  0.49557218  0.53700793     0.27000
H234        H  0.00101282  0.00574584  0.96324975     0.27000
O235        O  0.16623469  0.35991900  0.61617872    -0.56900
C236        C  0.16753876  0.44487612  0.67080481     0.75700
O237        O  0.07783716  0.43885102  0.61722106    -0.58100
C238        C  0.15812100  0.35284122  0.58138123     0.75700
C239        C  0.09363358  0.35583741  0.67469726     0.78100
Cd240      Cd  0.12533597  0.40340380  0.62602153     1.37500
O241        O  0.17081753  0.44064728  0.63390277    -0.56900
O242        O  0.11316738  0.37575615  0.68842771    -0.55700
C243        C  0.08186053  0.44459093  0.58083039     0.78000
O244        O  0.08624627  0.35988426  0.63888941    -0.58100
O245        O  0.14389586  0.43157882  0.68609826    -0.56600
O246        O  0.13797281  0.37170387  0.56622706    -0.56500
O247        O  0.10657187  0.43247624  0.56592018    -0.55700
O248        O  0.11632491  0.14127537  0.92695543    -0.56900
C249        C  0.16758567  0.05813565  0.83095300     0.75700
O250        O  0.07687777  0.06306578  0.88528846    -0.58100
C251        C  0.14499187  0.14567860  0.93466149     0.75700
C252        C  0.09987993  0.14919912  0.82300448     0.78100
Cd253      Cd  0.12321471  0.09901176  0.87649909     1.37500
O254        O  0.17137642  0.06417094  0.86734570    -0.56900
O255        O  0.12862204  0.14333812  0.82939094    -0.55700
C256        C  0.08144439  0.05681667  0.92146739     0.78000
O257        O  0.08074278  0.13049553  0.84014465    -0.58100
O258        O  0.14271273  0.06973210  0.81603830    -0.56600
O259        O  0.16439641  0.12804864  0.91558707    -0.56500
O260        O  0.10612053  0.06856464  0.93619954    -0.55700
N261        N  0.24969935  0.03087877  0.80046841    -0.35700
N262        N  0.29890394  0.00070719  0.75068139    -0.56300
N263        N  0.24921470  0.47120205  0.69988245    -0.35700
N264        N  0.20093743  0.00236564  0.75047019    -0.56300
C265        C  0.27542281  0.04745133  0.81279117     0.27900
C266        C  0.22394253  0.04781382  0.81312555     0.27900
C267        C  0.27488858  0.45452094  0.68654595     0.27900
C268        C  0.22350735  0.45478100  0.68732929     0.27900
C269        C  0.31776228  0.01668060  0.77640400     0.36500
C270        C  0.31721846  0.48401120  0.72296618     0.36500
C271        C  0.18187745  0.01774655  0.77696581     0.36500
C272        C  0.18141700  0.48269925  0.72706055     0.36500
C273        C  0.26571745  0.07516430  0.83303214    -0.21000
C274        C  0.23357579  0.07536210  0.83329128    -0.21000
C275        C  0.26519586  0.42729436  0.66576521    -0.21000
C276        C  0.23311275  0.42750433  0.66615966    -0.21000
C277        C  0.34893247  0.00967931  0.76755102    -0.22100
C278        C  0.34838760  0.49056579  0.73132483    -0.22100
C279        C  0.15083748  0.01052502  0.76872956    -0.22100
C280        C  0.15043084  0.48719732  0.73886383    -0.22100
C281        C  0.30757496  0.03895011  0.80625483    -0.17400
C282        C  0.19182152  0.03980919  0.80689334    -0.17400
C283        C  0.19143155  0.46252067  0.69507626    -0.17400
C284        C  0.30700512  0.46238822  0.69280136    -0.17400
H285        H  0.28014193  0.09417884  0.84529262     0.15500
H286        H  0.21908424  0.09452689  0.84580084     0.15500
H287        H  0.27958638  0.40823971  0.65284449     0.15500
H288        H  0.21864998  0.40861511  0.65365531     0.15500
H289        H  0.36987273  0.01762940  0.78251853     0.13800
H290        H  0.36921186  0.48277131  0.71556017     0.13800
H291        H  0.12997284  0.01838141  0.78441397     0.13800
H292        H  0.12935157  0.47786534  0.72545180     0.13800
H293        H  0.24974833  0.00816407  0.78688516     0.27000
H294        H  0.24918886  0.49360999  0.71420014     0.27000
O295        O  0.32723472  0.43809476  0.63229430    -0.56900
C296        C  0.35048506  0.35817278  0.56876560     0.75700
O297        O  0.42098326  0.44239248  0.61784296    -0.58100
C298        C  0.33117342  0.44425994  0.66864983     0.75700
C299        C  0.40046672  0.35219484  0.67405952     0.78100
Cd300      Cd  0.37565027  0.40408163  0.62420064     1.37500
O301        O  0.33270144  0.37111612  0.59446826    -0.56900
O302        O  0.41842681  0.36704073  0.65055095    -0.55700
C303        C  0.41807513  0.44720301  0.58102223     0.78000
O304        O  0.37252412  0.36253778  0.67581719    -0.58100
O305        O  0.37828468  0.36852807  0.56749145    -0.56600
O306        O  0.35630352  0.43320933  0.68353294    -0.56500
O307        O  0.39468193  0.43381791  0.56506192    -0.55700
O308        O  0.33679673  0.13273732  0.90332484    -0.56900
C309        C  0.33187571  0.05694397  0.82978737     0.75700
O310        O  0.42037909  0.12737243  0.83800388    -0.58100
C311        C  0.35611161  0.14883009  0.92374936     0.75700
C312        C  0.41888386  0.05344931  0.91804129     0.78100
Cd313      Cd  0.37736966  0.09647696  0.87249979     1.37500
O314        O  0.32820148  0.06379148  0.86606654    -0.56900
O315        O  0.39400129  0.06567178  0.93246177    -0.55700
C316        C  0.40157328  0.14242128  0.81541171     0.78000
O317        O  0.42351690  0.05906161  0.88169664    -0.58100
O318        O  0.35700100  0.06707345  0.81439488    -0.56600
O319        O  0.38432839  0.13911238  0.92235502    -0.56500
O320        O  0.37307031  0.13463949  0.81804678    -0.55700
C321        C  0.41130233  0.16948768  0.78948569    -0.11100
C322        C  0.39446218  0.17711965  0.75477446     0.04400
C323        C  0.39928394  0.20675011  0.73586478    -0.11600
C324        C  0.42047767  0.22944256  0.75093619     0.19300
C325        C  0.43856829  0.22127764  0.78424136    -0.08700
C326        C  0.43426607  0.19126201  0.80288193    -0.01600
H327        H  0.38535024  0.21276330  0.71015193     0.05800
C328        C  0.42060676  0.26244843  0.73360850     0.21200
H329        H  0.44731090  0.18600032  0.82953629     0.10900
C330        C  0.40466486  0.28760225  0.75348850    -0.15000
C331        C  0.39930000  0.31760584  0.73532958     0.03900
C332        C  0.41050968  0.32317093  0.69673360    -0.10300
C333        C  0.42802407  0.29853235  0.67770348    -0.00300
C334        C  0.43265892  0.26818327  0.69559438    -0.05500
H335        H  0.39506028  0.28335227  0.78261432     0.07000
H336        H  0.43643499  0.30215553  0.64788368     0.10300
Br337      Br  0.46792246  0.25122941  0.80644012    -0.05200
Br338      Br  0.36388550  0.14860583  0.73206618    -0.02100
Br339      Br  0.37598894  0.34990198  0.76443614     0.00700
Br340      Br  0.45398560  0.23453195  0.66644795    -0.04900
C341        C  0.34720790  0.17809287  0.94715059    -0.11100
C342        C  0.32135437  0.19837876  0.93729955     0.04400
C343        C  0.31745937  0.22848896  0.95622426    -0.11600
C344        C  0.33838640  0.23847521  0.98553119     0.19300
C345        C  0.36266140  0.21739495  0.99749226    -0.08700
C346        C  0.36718139  0.18776317  0.97799744    -0.01600
H347        H  0.29872297  0.24470505  0.94705957     0.05800
C348        C  0.33619170  0.27192213  0.50125673     0.21200
H349        H  0.38682067  0.17246882  0.98658154     0.10900
C350        C  0.31521131  0.27924660  0.53200061    -0.15000
C351        C  0.31746535  0.30857679  0.55295515     0.03900
C352        C  0.34092439  0.33115931  0.54257543    -0.10300
C353        C  0.35973491  0.32478704  0.50925346    -0.00300
C354        C  0.35776289  0.29541231  0.48893830    -0.05500
H355        H  0.29843792  0.26121683  0.54137577     0.07000
H356        H  0.37757570  0.34187676  0.50038444     0.10300
Br357      Br  0.39035381  0.22885632  0.53965882    -0.05200
Br358      Br  0.29174129  0.18795398  0.89665452    -0.02100
Br359      Br  0.29032265  0.31410734  0.59782365     0.00700
Br360      Br  0.38729705  0.28715407  0.94702797    -0.03700
C361        C  0.09038474  0.17709537  0.79749860    -0.11100
C362        C  0.06051485  0.19261858  0.79926805     0.04400
C363        C  0.05513869  0.22149413  0.77816573    -0.11600
C364        C  0.07897102  0.23534921  0.75534059     0.19300
C365        C  0.10826521  0.21952859  0.75270676    -0.08700
C366        C  0.11361014  0.19068637  0.77317833    -0.01600
H367        H  0.03264006  0.23373991  0.78049007     0.05800
C368        C  0.07450843  0.26752798  0.73670885     0.21200
H369        H  0.13666683  0.17946398  0.77109357     0.10900
C370        C  0.08281167  0.29533413  0.75810729    -0.15000
C371        C  0.08695720  0.32517780  0.73922976     0.03900
C372        C  0.08244272  0.32760613  0.69793073    -0.10300
C373        C  0.07127093  0.30026234  0.67737646    -0.00300
C374        C  0.06761510  0.27037972  0.69632348    -0.05500
H375        H  0.08808478  0.29332373  0.78926481     0.07000
H376        H  0.06754061  0.30138681  0.64581299     0.10300
Br377      Br  0.14253237  0.23777984  0.72359186    -0.05200
Br378      Br  0.02687889  0.17745691  0.83191662    -0.02100
Br379      Br  0.10027361  0.36086633  0.77165856     0.00700
Br380      Br  0.05607495  0.23335786  0.66525663    -0.03700
C381        C  0.16874148  0.32280989  0.56022887    -0.11100
C382        C  0.18417789  0.29650828  0.57924398     0.04400
C383        C  0.18611961  0.26599970  0.56046461    -0.11600
C384        C  0.17289259  0.26109073  0.52305358     0.19300
C385        C  0.15924866  0.28760354  0.50333003    -0.08700
C386        C  0.15787299  0.31808273  0.52147432    -0.01600
H387        H  0.19676375  0.24562229  0.07609831     0.05800
C388        C  0.16990901  0.22771196  0.00667424     0.21200
H389        H  0.14602591  0.33762567  0.50606563     0.10900
C390        C  0.14288723  0.20998567  0.01557518    -0.15000
C391        C  0.13532491  0.18195978  0.99417881     0.03900
C392        C  0.15498781  0.17126089  0.96292173    -0.10300
C393        C  0.18338771  0.18756004  0.95633911    -0.00300
C394        C  0.19083334  0.21565166  0.97782828    -0.05500
H395        H  0.12681749  0.21887208  0.03807895     0.07000
H396        H  0.19901468  0.17956590  0.93290060     0.10300
Br397      Br  0.13875318  0.28250279  0.45332516    -0.05200
Br398      Br  0.20080627  0.29937482  0.63178632    -0.02100
Br399      Br  0.09783796  0.15951059  0.00924754     0.00700
Br400      Br  0.22873908  0.23801902  0.96521538    -0.03700
N401        N  0.50112129  0.97277615  0.05172409    -0.35700
N402        N  0.45116766  0.50284563  0.50144136    -0.56300
N403        N  0.00030981  0.53110471  0.45230226    -0.35700
N404        N  0.04937050  0.50144220  0.50167966    -0.56300
C405        C  0.47536809  0.95663573  0.06482343     0.27900
C406        C  0.02683589  0.95566103  0.06384582     0.27900
C407        C  0.47474316  0.54806838  0.43975844     0.27900
C408        C  0.02596524  0.54809768  0.44084285     0.27900
C409        C  0.43284155  0.98462178  0.02627141     0.36500
C410        C  0.43241420  0.51766789  0.47442052     0.36500
C411        C  0.06915750  0.98382184  0.02575605     0.36500
C412        C  0.06825980  0.51678532  0.47552251     0.36500
C413        C  0.48500956  0.92918373  0.08516686    -0.21000
C414        C  0.01705649  0.92846483  0.08432596    -0.21000
C415        C  0.48432118  0.57610006  0.42091252    -0.21000
C416        C  0.01630108  0.57620560  0.42181348    -0.21000
C417        C  0.40172974  0.98905579  0.01517671    -0.22100
C418        C  0.40132124  0.51027532  0.48206700    -0.22100
C419        C  0.10017539  0.98877469  0.01467754    -0.22100
C420        C  0.09935962  0.50898426  0.48334702    -0.22100
C421        C  0.44315986  0.96449823  0.05790434    -0.17400
C422        C  0.05909234  0.96281198  0.05660807    -0.17400
C423        C  0.05802460  0.53918656  0.44622928    -0.17400
C424        C  0.44271332  0.53934103  0.44450636    -0.17400
H425        H  0.47054074  0.91036594  0.09763358     0.15500
H426        H  0.03132355  0.90895257  0.09609728     0.15500
H427        H  0.46973934  0.59519704  0.40870959     0.15500
H428        H  0.03077241  0.59544333  0.41032267     0.15500
H429        H  0.38080623  0.98017955  0.02940730     0.13800
H430        H  0.38065969  0.51781891  0.46594900     0.13800
H431        H  0.12138214  0.97937150  0.02794414     0.13800
H432        H  0.12015005  0.51677676  0.46785988     0.13800
H433        H  0.50106127  0.99510625  0.03763441     0.27000
H434        H  0.00036784  0.50803051  0.46457922     0.27000
O435        O  0.16729483  0.85990064  0.11284926    -0.56900
C436        C  0.16869437  0.94665946  0.17016546     0.75700
O437        O  0.07858901  0.93795647  0.11693199    -0.58100
C438        C  0.15669771  0.85234293  0.07926319     0.75700
C439        C  0.09716363  0.85747468  0.17752384     0.78100
Cd440      Cd  0.12696366  0.90393484  0.12604539     1.37500
O441        O  0.17284104  0.94091177  0.13366392    -0.56900
O442        O  0.11988898  0.87482368  0.18827754    -0.55700
C443        C  0.08312160  0.94459185  0.08085076     0.78000
O444        O  0.08602953  0.86345148  0.14369680    -0.58100
O445        O  0.14441882  0.93437416  0.18517784    -0.56600
O446        O  0.13536472  0.87089751  0.06628996    -0.56500
O447        O  0.10857376  0.93375333  0.06647175    -0.55700
O448        O  0.11883578  0.63804653  0.42734622    -0.56900
C449        C  0.16794493  0.55499286  0.33204557     0.75700
O450        O  0.07722525  0.56301728  0.38547782    -0.58100
C451        C  0.14750443  0.64403533  0.43292673     0.75700
C452        C  0.10376466  0.64946498  0.32523201     0.78100
Cd453      Cd  0.12478422  0.59720562  0.37637731     1.37500
O454        O  0.17127282  0.56041168  0.36864655    -0.56900
O455        O  0.13217756  0.64165470  0.33076017    -0.55700
C456        C  0.08179424  0.55684609  0.42170995     0.78000
O457        O  0.08367998  0.63110891  0.34120327    -0.58100
O458        O  0.14384786  0.56765969  0.31636449    -0.56600
O459        O  0.16691533  0.62736665  0.41263113    -0.56500
O460        O  0.10689480  0.56788585  0.43618420    -0.55700
N461        N  0.24984690  0.52775912  0.30142898    -0.35700
N462        N  0.29829956  0.49948580  0.24972443    -0.56300
N463        N  0.25024879  0.97232649  0.20075643    -0.35700
N464        N  0.20052117  0.49931493  0.25176108    -0.56300
C465        C  0.27551298  0.54458072  0.31347936     0.27900
C466        C  0.22409628  0.54452615  0.31438755     0.27900
C467        C  0.27585136  0.95475637  0.18884147     0.27900
C468        C  0.22445957  0.95604430  0.18822551     0.27900
C469        C  0.31752204  0.51518288  0.27528938     0.36500
C470        C  0.31799869  0.98416361  0.22540682     0.36500
C471        C  0.18184257  0.51407044  0.27909049     0.36500
C472        C  0.18200020  0.98591760  0.22541348     0.36500
C473        C  0.26575830  0.57216066  0.33391495    -0.21000
C474        C  0.23365390  0.57210314  0.33451927    -0.21000
C475        C  0.26602447  0.92710328  0.16908471    -0.21000
C476        C  0.23395179  0.92792434  0.16863280    -0.21000
C477        C  0.34856675  0.50918188  0.26493465    -0.22100
C478        C  0.34906393  0.99017969  0.23483119    -0.22100
C479        C  0.15074362  0.50637463  0.27201828    -0.22100
C480        C  0.15084297  0.99119573  0.23595702    -0.22100
C481        C  0.30763919  0.53662306  0.30611304    -0.17400
C482        C  0.19202973  0.53633474  0.30848320    -0.17400
C483        C  0.19236498  0.96469090  0.19450782    -0.17400
C484        C  0.30802845  0.96214530  0.19550975    -0.17400
H485        H  0.28009230  0.59135255  0.34592461     0.15500
H486        H  0.21911278  0.59113836  0.34723080     0.15500
H487        H  0.28031239  0.90740691  0.15746655     0.15500
H488        H  0.21938489  0.90890165  0.15664551     0.15500
H489        H  0.36969221  0.51736913  0.27929141     0.13800
H490        H  0.37013447  0.98142153  0.22039822     0.13800
H491        H  0.13019368  0.51390746  0.28859975     0.13800
H492        H  0.12992923  0.98204701  0.22195889     0.13800
H493        H  0.24991204  0.50517637  0.28778361     0.27000
H494        H  0.25031505  0.99520442  0.21404827     0.27000
O495        O  0.32818607  0.93680996  0.13548307    -0.56900
C496        C  0.35482346  0.85661220  0.07067937     0.75700
O497        O  0.42262109  0.94208414  0.11886710    -0.58100
C498        C  0.33225811  0.94357665  0.17164833     0.75700
C499        C  0.40254458  0.85296627  0.17601995     0.78100
Cd500      Cd  0.37745797  0.90398107  0.12629352     1.37500
O501        O  0.33560092  0.87253950  0.09201397    -0.56900
O502        O  0.42129986  0.87172648  0.15839089    -0.55700
C503        C  0.41933247  0.94649572  0.08205210     0.78000
O504        O  0.37365597  0.85912360  0.17195160    -0.58100
O505        O  0.38338019  0.86428833  0.07364233    -0.56600
O506        O  0.35764790  0.93297393  0.18633845    -0.56500
O507        O  0.39574863  0.93303211  0.06663249    -0.55700
O508        O  0.33447707  0.63201006  0.40285886    -0.56900
C509        C  0.33194245  0.55496868  0.32927198     0.75700
O510        O  0.41818989  0.62577928  0.33296762    -0.58100
C511        C  0.35390598  0.64953067  0.42132047     0.75700
C512        C  0.41901806  0.55670201  0.41897094     0.78100
Cd513      Cd  0.37611125  0.59683772  0.37117860     1.37500
O514        O  0.32852333  0.56167554  0.36561525    -0.56900
O515        O  0.39355717  0.56828289  0.43255081    -0.55700
C516        C  0.39886671  0.64239116  0.31275565     0.78000
O517        O  0.42398871  0.56207668  0.38264487    -0.58100
O518        O  0.35652533  0.56597060  0.31343332    -0.56600
O519        O  0.38246804  0.64134268  0.41812840    -0.56500
O520        O  0.37018711  0.63642919  0.31832835    -0.55700
C521        C  0.40861235  0.66915692  0.28634736    -0.11100
C522        C  0.39010245  0.67878704  0.25372418     0.04400
C523        C  0.39629982  0.70802883  0.23447616    -0.11600
C524        C  0.42014781  0.72860025  0.24767745     0.19300
C525        C  0.43927958  0.71866556  0.27923763    -0.08700
C526        C  0.43398400  0.68876106  0.29763704    -0.01600
H527        H  0.38119350  0.71571135  0.21051037     0.05800
C528        C  0.42086066  0.76222931  0.23247759     0.21200
H529        H  0.44809279  0.68218283  0.32297956     0.10900
C530        C  0.40112509  0.78536392  0.25040903    -0.15000
C531        C  0.39703447  0.81613360  0.23401719     0.03900
C532        C  0.41279288  0.82431215  0.19890339    -0.10300
C533        C  0.43436460  0.80196298  0.18240735    -0.00300
C534        C  0.43831869  0.77092065  0.19886306    -0.05500
H535        H  0.38789742  0.77899849  0.27654723     0.07000
H536        H  0.44653644  0.80780421  0.15529901     0.10300
Br537      Br  0.47033714  0.74696690  0.30090089    -0.05200
Br538      Br  0.35505432  0.65403922  0.23501394    -0.02100
Br539      Br  0.36905085  0.84599703  0.26036717     0.00700
Br540      Br  0.46614197  0.74048353  0.17341134    -0.04900
C541        C  0.34484730  0.67858917  0.44485998    -0.11100
C542        C  0.32059357  0.70030519  0.43342865     0.04400
C543        C  0.31779808  0.73075309  0.45200332    -0.11600
C544        C  0.33798618  0.73932648  0.48286491     0.19300
C545        C  0.35993512  0.71646804  0.49681962    -0.08700
C546        C  0.36369663  0.68676437  0.47734073    -0.01600
H547        H  0.30044563  0.74810031  0.44167379     0.05800
C548        C  0.33754662  0.77231223  0.99983135     0.21200
H549        H  0.38187867  0.67015341  0.48725973     0.10900
C550        C  0.31728146  0.77958707  0.03131571    -0.15000
C551        C  0.32143992  0.80771783  0.05407547     0.03900
C552        C  0.34546431  0.82973773  0.04421910    -0.10300
C553        C  0.36425889  0.82328858  0.01093915    -0.00300
C554        C  0.36078284  0.79471376  0.98916732    -0.05500
H555        H  0.29990111  0.76201068  0.04021494     0.07000
H556        H  0.38299926  0.83968742  0.00311014     0.10300
Br557      Br  0.38551100  0.72486229  0.04257236    -0.05200
Br558      Br  0.29192839  0.69091815  0.39137831    -0.02100
Br559      Br  0.29731877  0.81145407  0.10173863     0.00700
Br560      Br  0.39045802  0.78580080  0.44737865    -0.03700
C561        C  0.09577449  0.67913379  0.30211043    -0.11100
C562        C  0.06626833  0.69536320  0.30392087     0.04400
C563        C  0.06186337  0.72487375  0.28388991    -0.11600
C564        C  0.08646726  0.73896130  0.26266568     0.19300
C565        C  0.11580758  0.72313965  0.26121967    -0.08700
C566        C  0.12008961  0.69348217  0.28023802    -0.01600
H567        H  0.03938776  0.73727680  0.28554544     0.05800
C568        C  0.08191748  0.77047116  0.24261385     0.21200
H569        H  0.14306117  0.68201843  0.27865749     0.10900
C570        C  0.08864370  0.79926593  0.26299811    -0.15000
C571        C  0.09094965  0.82878738  0.24289390     0.03900
C572        C  0.08661905  0.82967663  0.20157437    -0.10300
C573        C  0.07708956  0.80128387  0.18197180    -0.00300
C574        C  0.07493905  0.77180686  0.20211972    -0.05500
H575        H  0.09361954  0.79848990  0.29431360     0.07000
H576        H  0.07359284  0.80141106  0.15032528     0.10300
Br577      Br  0.15127626  0.74187623  0.23502473    -0.05200
Br578      Br  0.03180367  0.68030445  0.33524161    -0.02100
Br579      Br  0.10057797  0.86686770  0.27331345     0.00700
Br580      Br  0.06503644  0.73339133  0.17266261    -0.03700
C581        C  0.16619125  0.82237787  0.05705159    -0.11100
C582        C  0.18657336  0.79805460  0.07236813     0.04400
C583        C  0.18938080  0.76783240  0.05307125    -0.11600
C584        C  0.17206707  0.76120440  0.01886868     0.19300
C585        C  0.15301721  0.78574576  0.00268287    -0.08700
C586        C  0.15057993  0.81594250  0.02131586    -0.01600
H587        H  0.20410076  0.74879148  0.56575905     0.05800
C588        C  0.17051862  0.72769197  0.50274954     0.21200
H589        H  0.13481492  0.83386076  0.00871716     0.10900
C590        C  0.14411059  0.70928003  0.51216577    -0.15000
C591        C  0.13729369  0.68082186  0.49147817     0.03900
C592        C  0.15717619  0.67024601  0.46038501    -0.10300
C593        C  0.18509530  0.68732451  0.45321288    -0.00300
C594        C  0.19183627  0.71590100  0.47420969    -0.05500
H595        H  0.12782468  0.71801667  0.53451336     0.07000
H596        H  0.20086291  0.67947253  0.42985157     0.10300
Br597      Br  0.12776420  0.77819741  0.95668198    -0.05200
Br598      Br  0.20964857  0.80319630  0.12053795    -0.02100
Br599      Br  0.10014697  0.65803017  0.50719949     0.00700
Br600      Br  0.22925328  0.73917345  0.46158712    -0.03700
N601        N  0.50104228  0.97271430  0.55163621    -0.35700
N602        N  0.45109399  0.50303063  0.00158340    -0.56300
N603        N  0.00039719  0.53125443  0.95229937    -0.35700
N604        N  0.04944539  0.50154420  0.00166089    -0.56300
C605        C  0.47527447  0.95658146  0.56468362     0.27900
C606        C  0.02679422  0.95557757  0.56392322     0.27900
C607        C  0.47466584  0.54812676  0.93977546     0.27900
C608        C  0.02607406  0.54816952  0.94075214     0.27900
C609        C  0.43275927  0.98476319  0.52629902     0.36500
C610        C  0.43232845  0.51786071  0.97458305     0.36500
C611        C  0.06911821  0.98363791  0.52573473     0.36500
C612        C  0.06833506  0.51679939  0.97543046     0.36500
C613        C  0.48488512  0.92908984  0.58498028    -0.21000
C614        C  0.01696650  0.92842604  0.58445148    -0.21000
C615        C  0.48425513  0.57615557  0.92092844    -0.21000
C616        C  0.01644543  0.57624686  0.92162419    -0.21000
C617        C  0.40163843  0.98932674  0.51531584    -0.22100
C618        C  0.40122567  0.51060165  0.98237672    -0.22100
C619        C  0.10013464  0.98860903  0.51466281    -0.22100
C620        C  0.09942670  0.50890972  0.98317768    -0.22100
C621        C  0.44308019  0.96453214  0.55782792    -0.17400
C622        C  0.05905972  0.96262784  0.55659263    -0.17400
C623        C  0.05811881  0.53920257  0.94613496    -0.17400
C624        C  0.44263883  0.53942614  0.94455786    -0.17400
H625        H  0.47039610  0.91027460  0.59741666     0.15500
H626        H  0.03119606  0.90887986  0.59621113     0.15500
H627        H  0.46968134  0.59527329  0.90875677     0.15500
H628        H  0.03094000  0.59542866  0.91004167     0.15500
H629        H  0.38071913  0.98047170  0.52958042     0.13800
H630        H  0.38054596  0.51817630  0.96631934     0.13800
H631        H  0.12134501  0.97922770  0.52794374     0.13800
H632        H  0.12021032  0.51661837  0.96760965     0.13800
H633        H  0.50100147  0.99507116  0.53760799     0.27000
H634        H  0.00042283  0.50821272  0.96466267     0.27000
O635        O  0.16727945  0.85957746  0.61296320    -0.56900
C636        C  0.16880207  0.94659554  0.66998914     0.75700
O637        O  0.07863124  0.93769886  0.61684983    -0.58100
C638        C  0.15700264  0.85228228  0.57913717     0.75700
C639        C  0.09728941  0.85725747  0.67725328     0.78100
Cd640      Cd  0.12711291  0.90379038  0.62587725     1.37500
O641        O  0.17292957  0.94087222  0.63347997    -0.56900
O642        O  0.11987673  0.87474598  0.68813658    -0.55700
C643        C  0.08310405  0.94435256  0.58076263     0.78000
O644        O  0.08631801  0.86309223  0.64330562    -0.58100
O645        O  0.14457337  0.93423749  0.68502661    -0.56600
O646        O  0.13597376  0.87109018  0.56592179    -0.56500
O647        O  0.10853673  0.93352301  0.56632061    -0.55700
O648        O  0.11878190  0.63799543  0.92734389    -0.56900
C649        C  0.16807234  0.55489893  0.83208465     0.75700
O650        O  0.07737113  0.56294796  0.88537307    -0.58100
C651        C  0.14742690  0.64407007  0.93296696     0.75700
C652        C  0.10382082  0.64943805  0.82527577     0.78100
Cd653      Cd  0.12488857  0.59716896  0.87635613     1.37500
O654        O  0.17138311  0.56034889  0.86868263    -0.56900
O655        O  0.13224283  0.64166015  0.83080751    -0.55700
C656        C  0.08191017  0.55681539  0.92162052     0.78000
O657        O  0.08375105  0.63102526  0.84117934    -0.58100
O658        O  0.14400194  0.56758855  0.81636584    -0.56600
O659        O  0.16689788  0.62743724  0.91271339    -0.56500
O660        O  0.10699309  0.56786884  0.93612744    -0.55700
N661        N  0.24997322  0.52761765  0.80147188    -0.35700
N662        N  0.29842282  0.49940958  0.74967926    -0.56300
N663        N  0.25032947  0.97231504  0.70063380    -0.35700
N664        N  0.20064034  0.49911179  0.75189491    -0.56300
C665        C  0.27563627  0.54446036  0.81348554     0.27900
C666        C  0.22422207  0.54437463  0.81445563     0.27900
C667        C  0.27593879  0.95473355  0.68877185     0.27900
C668        C  0.22455077  0.95603239  0.68806752     0.27900
C669        C  0.31765069  0.51515095  0.77519478     0.36500
C670        C  0.31806867  0.98412318  0.72539797     0.36500
C671        C  0.18196295  0.51389912  0.77920197     0.36500
C672        C  0.18206405  0.98592327  0.72518233     0.36500
C673        C  0.26587811  0.57203750  0.83392491    -0.21000
C674        C  0.23377843  0.57195977  0.83456841    -0.21000
C675        C  0.26612512  0.92707420  0.66901495    -0.21000
C676        C  0.23405604  0.92790566  0.66850087    -0.21000
C677        C  0.34869240  0.50923870  0.76474155    -0.22100
C678        C  0.34912718  0.99008512  0.73491452    -0.22100
C679        C  0.15086133  0.50622478  0.77212068    -0.22100
C680        C  0.15090017  0.99119849  0.73568981    -0.22100
C681        C  0.30776384  0.53654268  0.80606809    -0.17400
C682        C  0.19215332  0.53618964  0.80856375    -0.17400
C683        C  0.19245199  0.96467167  0.69431420    -0.17400
C684        C  0.30811145  0.96211264  0.69548425    -0.17400
H685        H  0.28020394  0.59125170  0.84589608     0.15500
H686        H  0.21923979  0.59099665  0.84727955     0.15500
H687        H  0.28041722  0.90736321  0.65744157     0.15500
H688        H  0.21949845  0.90888186  0.65649795     0.15500
H689        H  0.36982578  0.51747672  0.77903440     0.13800
H690        H  0.37021148  0.98127421  0.72056167     0.13800
H691        H  0.13031121  0.51379538  0.78867734     0.13800
H692        H  0.13000279  0.98202088  0.72167838     0.13800
H693        H  0.25004772  0.50503604  0.78782062     0.27000
H694        H  0.25038862  0.99519557  0.71391896     0.27000
O695        O  0.32823945  0.93677966  0.63545822    -0.56900
C696        C  0.35486552  0.85674725  0.57036201     0.75700
O697        O  0.42258584  0.94208646  0.61876463    -0.58100
C698        C  0.33233594  0.94354810  0.67161661     0.75700
C699        C  0.40258312  0.85295024  0.67585714     0.78100
Cd700      Cd  0.37748342  0.90397914  0.62616624     1.37500
O701        O  0.33564001  0.87275331  0.59160908    -0.56900
O702        O  0.42133715  0.87174649  0.65828208    -0.55700
C703        C  0.41926110  0.94653854  0.58196369     0.78000
O704        O  0.37368942  0.85906159  0.67172873    -0.58100
O705        O  0.38345153  0.86426110  0.57352048    -0.56600
O706        O  0.35773291  0.93294298  0.68628164    -0.56500
O707        O  0.39566689  0.93310201  0.56654056    -0.55700
O708        O  0.33457452  0.63198447  0.90290172    -0.56900
C709        C  0.33205082  0.55490617  0.82922525     0.75700
O710        O  0.41814655  0.62584792  0.83287942    -0.58100
C711        C  0.35402781  0.64948887  0.92134931     0.75700
C712        C  0.41897234  0.55674250  0.91895798     0.78100
Cd713      Cd  0.37614471  0.59683616  0.87111639     1.37500
O714        O  0.32861715  0.56161687  0.86556621    -0.56900
O715        O  0.39349372  0.56831826  0.93248022    -0.55700
C716        C  0.39877889  0.64238562  0.81264078     0.78000
O717        O  0.42399545  0.56209748  0.88263656    -0.58100
O718        O  0.35662018  0.56593560  0.81338658    -0.56600
O719        O  0.38258855  0.64131743  0.91808230    -0.56500
O720        O  0.37011603  0.63634489  0.81821935    -0.55700
C721        C  0.40845918  0.66915830  0.78620006    -0.11100
C722        C  0.38982630  0.67887212  0.75371711     0.04400
C723        C  0.39603314  0.70810038  0.73444494    -0.11600
C724        C  0.42000990  0.72857866  0.74748603     0.19300
C725        C  0.43924208  0.71857188  0.77891082    -0.08700
C726        C  0.43393767  0.68867833  0.79732737    -0.01600
H727        H  0.38084443  0.71584852  0.71059179     0.05800
C728        C  0.42077636  0.76220591  0.73229648     0.21200
H729        H  0.44814015  0.68204620  0.82256670     0.10900
C730        C  0.40106773  0.78536430  0.75022524    -0.15000
C731        C  0.39705506  0.81615273  0.73386459     0.03900
C732        C  0.41283431  0.82431092  0.69876094    -0.10300
C733        C  0.43439992  0.80194382  0.68228630    -0.00300
C734        C  0.43830630  0.77089367  0.69873965    -0.05500
H735        H  0.38781271  0.77901074  0.77634604     0.07000
H736        H  0.44660530  0.80777975  0.65520015     0.10300
Br737      Br  0.47044673  0.74678566  0.80039814    -0.05200
Br738      Br  0.35459286  0.65428553  0.73523566    -0.02100
Br739      Br  0.36915362  0.84608025  0.76024216     0.00700
Br740      Br  0.46617642  0.74044835  0.67338000    -0.04900
C741        C  0.34498635  0.67851188  0.94495414    -0.11100
C742        C  0.32076641  0.70026617  0.93352952     0.04400
C743        C  0.31795413  0.73067141  0.95219560    -0.11600
C744        C  0.33808515  0.73915790  0.98315030     0.19300
C745        C  0.35999854  0.71625875  0.99709163    -0.08700
C746        C  0.36379200  0.68660217  0.97750868    -0.01600
H747        H  0.30062203  0.74804773  0.94188181     0.05800
C748        C  0.33746985  0.77252096  0.49943902     0.21200
H749        H  0.38194686  0.66995558  0.98741847     0.10900
C750        C  0.31710527  0.77992238  0.53077998    -0.15000
C751        C  0.32128398  0.80806411  0.55351392     0.03900
C752        C  0.34546759  0.82994268  0.54381304    -0.10300
C753        C  0.36434913  0.82339416  0.51063549    -0.00300
C754        C  0.36081247  0.79483049  0.48885062    -0.05500
H755        H  0.29961508  0.76243498  0.53959898     0.07000
H756        H  0.38318858  0.83970200  0.50290027     0.10300
Br757      Br  0.38557023  0.72519331  0.54215585    -0.05200
Br758      Br  0.29216999  0.69098331  0.89137163    -0.02100
Br759      Br  0.29691659  0.81201941  0.60095215     0.00700
Br760      Br  0.39039805  0.78580487  0.94762726    -0.03700
C761        C  0.09580392  0.67913062  0.80221633    -0.11100
C762        C  0.06630453  0.69537001  0.80410970     0.04400
C763        C  0.06187188  0.72488059  0.78408167    -0.11600
C764        C  0.08644647  0.73895911  0.76279185     0.19300
C765        C  0.11579454  0.72315585  0.76133194    -0.08700
C766        C  0.12009805  0.69349492  0.78032808    -0.01600
H767        H  0.03939831  0.73728198  0.78577532     0.05800
C768        C  0.08185980  0.77041009  0.74261511     0.21200
H769        H  0.14307110  0.68203779  0.77871198     0.10900
C770        C  0.08844465  0.79927719  0.76292301    -0.15000
C771        C  0.09081004  0.82874033  0.74270139     0.03900
C772        C  0.08670464  0.82949239  0.70133920    -0.10300
C773        C  0.07730807  0.80102616  0.68179071    -0.00300
C774        C  0.07507318  0.77161400  0.70206162    -0.05500
H775        H  0.09327166  0.79860449  0.79427931     0.07000
H776        H  0.07396641  0.80104967  0.65011669     0.10300
Br777      Br  0.15125332  0.74193241  0.73516034    -0.05200
Br778      Br  0.03189823  0.68032526  0.83554497    -0.02100
Br779      Br  0.10018329  0.86693843  0.77303217     0.00700
Br780      Br  0.06530599  0.73309974  0.67271819    -0.03700
C781        C  0.16645742  0.82230251  0.55693717    -0.11100
C782        C  0.18678046  0.79794248  0.57228815     0.04400
C783        C  0.18954799  0.76771461  0.55300874    -0.11600
C784        C  0.17222197  0.76110002  0.51881763     0.19300
C785        C  0.15319059  0.78565324  0.50262478    -0.08700
C786        C  0.15082775  0.81587495  0.52121104    -0.01600
H787        H  0.20395685  0.74892516  0.06581437     0.05800
C788        C  0.17035651  0.72778889  0.00280191     0.21200
H789        H  0.13507949  0.83380723  0.50860915     0.10900
C790        C  0.14387893  0.70943917  0.01209977    -0.15000
C791        C  0.13704357  0.68099901  0.99137972     0.03900
C792        C  0.15701486  0.67033549  0.96041242    -0.10300
C793        C  0.18498143  0.68736426  0.95334855    -0.00300
C794        C  0.19171412  0.71594963  0.97433488    -0.05500
H795        H  0.12754298  0.71822765  0.03436099     0.07000
H796        H  0.20080223  0.67946656  0.93006626     0.10300
Br797      Br  0.12784027  0.77808505  0.45671290    -0.05200
Br798      Br  0.20983528  0.80304313  0.62047714    -0.02100
Br799      Br  0.09972093  0.65839988  0.00686254     0.00700
Br800      Br  0.22917048  0.73917214  0.96175157    -0.03700
N801        N  0.00015874  0.47360080  0.05150529    -0.35700
N802        N  0.95171031  0.00055279  0.50070178    -0.56300
N803        N  0.50046622  0.02883475  0.45102750    -0.35700
N804        N  0.54985145  0.00069715  0.50135675    -0.56300
C805        C  0.97426247  0.45775304  0.06471409     0.27900
C806        C  0.52570992  0.45642991  0.06406121     0.27900
C807        C  0.97454415  0.04512778  0.43824111     0.27900
C808        C  0.52579208  0.04651048  0.44000269     0.27900
C809        C  0.93203662  0.48671806  0.02655005     0.36500
C810        C  0.93270803  0.01463945  0.47338608     0.36500
C811        C  0.56835576  0.48432058  0.02616418     0.36500
C812        C  0.56848024  0.01610161  0.47495355     0.36500
C813        C  0.98371852  0.43046622  0.08553358    -0.21000
C814        C  0.51573417  0.42956419  0.08500245    -0.21000
C815        C  0.98364406  0.07344935  0.41966446    -0.21000
C816        C  0.51568249  0.07442368  0.42093044    -0.21000
C817        C  0.90100673  0.49164559  0.01545664    -0.22100
C818        C  0.90168761  0.00744546  0.48163313    -0.22100
C819        C  0.59947453  0.48907420  0.01550182    -0.22100
C820        C  0.59965636  0.00853559  0.48241991    -0.22100
C821        C  0.94210348  0.46580256  0.05761932    -0.17400
C822        C  0.55800842  0.46325903  0.05677232    -0.17400
C823        C  0.55796016  0.03839565  0.44574662    -0.17400
C824        C  0.94268400  0.03597757  0.44303426    -0.17400
H825        H  0.96917162  0.41185300  0.09828721     0.15500
H826        H  0.52987173  0.41017159  0.09729270     0.15500
H827        H  0.96879057  0.09235681  0.40754513     0.15500
H828        H  0.52978235  0.09409269  0.40980333     0.15500
H829        H  0.88001131  0.48239615  0.02915952     0.13800
H830        H  0.88092857  0.01468577  0.46549446     0.13800
H831        H  0.62047395  0.47942266  0.02906179     0.13800
H832        H  0.62024296  0.01649141  0.46661363     0.13800
H833        H  0.00033542  0.49575964  0.03709477     0.27000
H834        H  0.50092959  0.00578658  0.46339219     0.27000
O835        O  0.66603810  0.35982417  0.11630335    -0.56900
C836        C  0.66752170  0.44511165  0.17070829     0.75700
O837        O  0.57782129  0.43894328  0.11717698    -0.58100
C838        C  0.65803435  0.35289588  0.08142215     0.75700
C839        C  0.59376072  0.35601038  0.17478930     0.78100
Cd840      Cd  0.62535135  0.40355289  0.12600575     1.37500
O841        O  0.67080738  0.44085212  0.13381159    -0.56900
O842        O  0.61328299  0.37597846  0.18843458    -0.55700
C843        C  0.58184654  0.44466216  0.08078057     0.78000
O844        O  0.58628537  0.36002848  0.13900216    -0.58100
O845        O  0.64389133  0.43180738  0.18601687    -0.56600
O846        O  0.63809291  0.37195182  0.06619487    -0.56500
O847        O  0.60654857  0.43252539  0.06587545    -0.55700
O848        O  0.61639714  0.14115315  0.42728859    -0.56900
C849        C  0.66764231  0.05810855  0.33117378     0.75700
O850        O  0.57691854  0.06297698  0.38539126    -0.58100
C851        C  0.64507563  0.14566520  0.43482164     0.75700
C852        C  0.59977216  0.14925891  0.32316770     0.78100
Cd853      Cd  0.62320566  0.09902942  0.37664566     1.37500
O854        O  0.67138570  0.06413141  0.36757732    -0.56900
O855        O  0.62851442  0.14335366  0.32948911    -0.55700
C856        C  0.58142387  0.05679706  0.42160076     0.78000
O857        O  0.58064335  0.13059376  0.34038575    -0.58100
O858        O  0.64280011  0.06973966  0.31621437    -0.56600
O859        O  0.66446252  0.12814890  0.41556653    -0.56500
O860        O  0.60604320  0.06863044  0.43638188    -0.55700
N861        N  0.74977109  0.03089166  0.30055757    -0.35700
N862        N  0.79894840  0.00079019  0.25060359    -0.56300
N863        N  0.74919704  0.47139127  0.19982919    -0.35700
N864        N  0.70098149  0.00231215  0.25070739    -0.56300
C865        C  0.77549731  0.04749291  0.31281127     0.27900
C866        C  0.72401346  0.04777520  0.31332804     0.27900
C867        C  0.77486147  0.45465956  0.18655476     0.27900
C868        C  0.72348047  0.45499334  0.18726285     0.27900
C869        C  0.81782875  0.01684208  0.27622468     0.36500
C870        C  0.81719705  0.48412133  0.22299534     0.36500
C871        C  0.68193845  0.01767103  0.27724396     0.36500
C872        C  0.68139278  0.48294653  0.22695514     0.36500
C873        C  0.76579010  0.07516985  0.33312793    -0.21000
C874        C  0.73364883  0.07531297  0.33350821    -0.21000
C875        C  0.76515277  0.42742318  0.16580742    -0.21000
C876        C  0.73307007  0.42768027  0.16615153    -0.21000
C877        C  0.84899684  0.00995254  0.26721521    -0.22100
C878        C  0.84836699  0.49064408  0.23139557    -0.22100
C879        C  0.65089687  0.01043119  0.26906064    -0.22100
C880        C  0.65040959  0.48741298  0.23879005    -0.22100
C881        C  0.80765274  0.03905568  0.30614677    -0.17400
C882        C  0.69188887  0.03975483  0.30714310    -0.17400
C883        C  0.69140802  0.46277023  0.19496970    -0.17400
C884        C  0.80698301  0.46249079  0.19283630    -0.17400
H885        H  0.78020875  0.09420314  0.34535544     0.15500
H886        H  0.71915681  0.09444221  0.34609644     0.15500
H887        H  0.77953066  0.40833192  0.15294528     0.15500
H888        H  0.71859481  0.40879455  0.15366231     0.15500
H889        H  0.86996223  0.01797176  0.28206700     0.13800
H890        H  0.86920166  0.48282738  0.21567132     0.13800
H891        H  0.63004620  0.01827300  0.28478652     0.13800
H892        H  0.62932974  0.47806797  0.22539330     0.13800
H893        H  0.74983142  0.00819765  0.28692972     0.27000
H894        H  0.74918560  0.49381403  0.21411624     0.27000
O895        O  0.82722285  0.43810094  0.13237737    -0.56900
C896        C  0.85059000  0.35808724  0.06916611     0.75700
O897        O  0.92100096  0.44261991  0.11801019    -0.58100
C898        C  0.83115593  0.44433224  0.16871926     0.75700
C899        C  0.90080891  0.35249835  0.17435036     0.78100
Cd900      Cd  0.87574744  0.40421006  0.12437260     1.37500
O901        O  0.83288991  0.37087456  0.09506780    -0.56900
O902        O  0.91859297  0.36705883  0.15036770    -0.55700
C903        C  0.91806022  0.44747117  0.08120171     0.78000
O904        O  0.87296817  0.36308441  0.17652677    -0.58100
O905        O  0.87828893  0.36869016  0.06757668    -0.56600
O906        O  0.85630375  0.43334464  0.18361968    -0.56500
O907        O  0.89466198  0.43408778  0.06524852    -0.55700
O908        O  0.83680118  0.13311699  0.40255065    -0.56900
C909        C  0.83196178  0.05705184  0.32965582     0.75700
O910        O  0.92053002  0.12746551  0.33788346    -0.58100
C911        C  0.85595454  0.14893394  0.42352080     0.75700
C912        C  0.91884767  0.05359556  0.41806323     0.78100
Cd913      Cd  0.87742608  0.09661789  0.37233330     1.37500
O914        O  0.82831126  0.06387440  0.36594307    -0.56900
O915        O  0.89394046  0.06583692  0.43239317    -0.55700
C916        C  0.90176559  0.14253940  0.31525921     0.78000
O917        O  0.92354186  0.05918111  0.38172085    -0.58100
O918        O  0.85706814  0.06720628  0.31424458    -0.56600
O919        O  0.88410190  0.13895424  0.42268611    -0.56500
O920        O  0.87325455  0.13479325  0.31786226    -0.55700
C921        C  0.91154108  0.16961364  0.28936087    -0.11100
C922        C  0.89466975  0.17736751  0.25470646     0.04400
C923        C  0.89953630  0.20703049  0.23588264    -0.11600
C924        C  0.92078773  0.22964492  0.25099953     0.19300
C925        C  0.93889697  0.22136256  0.28424256    -0.08700
C926        C  0.93456971  0.19130597  0.30277619    -0.01600
H927        H  0.88558517  0.21313660  0.21021652     0.05800
C928        C  0.92096291  0.26269479  0.23379187     0.21200
H929        H  0.94763241  0.18596010  0.32939154     0.10900
C930        C  0.90497461  0.28780379  0.25369260    -0.15000
C931        C  0.89964467  0.31784753  0.23561161     0.03900
C932        C  0.91089503  0.32348234  0.19704025    -0.10300
C933        C  0.92849496  0.29889525  0.17802543    -0.00300
C934        C  0.93313189  0.26852405  0.19586313    -0.05500
H935        H  0.89531643  0.28349178  0.28277641     0.07000
H936        H  0.93697588  0.30257106  0.14824734     0.10300
Br937      Br  0.96827305  0.25123355  0.30654625    -0.05200
Br938      Br  0.86396609  0.14900511  0.23198418    -0.02100
Br939      Br  0.87634124  0.35008755  0.26482419     0.00700
Br940      Br  0.95464023  0.23496929  0.16676672    -0.04900
C941        C  0.84696119  0.17819274  0.44689019    -0.11100
C942        C  0.82122395  0.19856360  0.43680379     0.04400
C943        C  0.81731634  0.22868985  0.45568566    -0.11600
C944        C  0.83808807  0.23859792  0.48520345     0.19300
C945        C  0.86219053  0.21741545  0.49743695    -0.08700
C946        C  0.86674348  0.18777349  0.47797579    -0.01600
H947        H  0.79870372  0.24497984  0.44632136     0.05800
C948        C  0.83637176  0.27178645  0.00169479     0.21200
H949        H  0.88627402  0.17241152  0.48676468     0.10900
C950        C  0.81565096  0.27888000  0.03278494    -0.15000
C951        C  0.81788121  0.30819104  0.05377498     0.03900
C952        C  0.84104877  0.33099532  0.04308552    -0.10300
C953        C  0.85959693  0.32482700  0.00947818    -0.00300
C954        C  0.85764545  0.29547049  0.98911157    -0.05500
H955        H  0.79911969  0.26069047  0.04237924     0.07000
H956        H  0.87721588  0.34208144  0.00038569     0.10300
Br957      Br  0.89105041  0.22902601  0.03943400    -0.05200
Br958      Br  0.79176859  0.18822762  0.39594077    -0.02100
Br959      Br  0.79116149  0.31338860  0.09909449     0.00700
Br960      Br  0.88759679  0.28685993  0.44716684    -0.03700
C961        C  0.59028815  0.17714953  0.29762233    -0.11100
C962        C  0.56048790  0.19281470  0.29948801     0.04400
C963        C  0.55518067  0.22169936  0.27835823    -0.11600
C964        C  0.57901580  0.23542516  0.25540794     0.19300
C965        C  0.60822460  0.21944691  0.25266383    -0.08700
C966        C  0.61349422  0.19059767  0.27315422    -0.01600
H967        H  0.53274879  0.23406640  0.28078523     0.05800
C968        C  0.57469109  0.26766456  0.23684986     0.21200
H969        H  0.63649517  0.17926303  0.27098070     0.10900
C970        C  0.58341317  0.29536754  0.25817467    -0.15000
C971        C  0.58757656  0.32521772  0.23931765     0.03900
C972        C  0.58266911  0.32776971  0.19809717    -0.10300
C973        C  0.57114790  0.30053374  0.17763961    -0.00300
C974        C  0.56746059  0.27064218  0.19656818    -0.05500
H975        H  0.58896601  0.29326213  0.28924540     0.07000
H976        H  0.56711988  0.30174573  0.14613960     0.10300
Br977      Br  0.64250745  0.23750275  0.22340088    -0.05200
Br978      Br  0.52688497  0.17784158  0.33231990    -0.02100
Br979      Br  0.60145752  0.36072173  0.27166947     0.00700
Br980      Br  0.55534925  0.23378261  0.16557838    -0.03700
C981        C  0.66852859  0.32283349  0.06023490    -0.11100
C982        C  0.68407795  0.29653846  0.07912823     0.04400
C983        C  0.68602512  0.26605758  0.06028361    -0.11600
C984        C  0.67262823  0.26114867  0.02297024     0.19300
C985        C  0.65875923  0.28762189  0.00342001    -0.08700
C986        C  0.65744515  0.31809173  0.02157857    -0.01600
H987        H  0.69670345  0.24554947  0.57642633     0.05800
C988        C  0.67005181  0.22770238  0.50683780     0.21200
H989        H  0.64546528  0.33760687  0.00627837     0.10900
C990        C  0.64300492  0.21000704  0.51572057    -0.15000
C991        C  0.63543344  0.18196880  0.49434320     0.03900
C992        C  0.65509143  0.17124579  0.46308884    -0.10300
C993        C  0.68351214  0.18751455  0.45652790    -0.00300
C994        C  0.69098326  0.21559560  0.47802716    -0.05500
H995        H  0.62693487  0.21891368  0.53821220     0.07000
H996        H  0.69914866  0.17949588  0.43311181     0.10300
Br997      Br  0.63784458  0.28246305  0.95369791    -0.05200
Br998      Br  0.70088153  0.29936498  0.13158411    -0.02100
Br999      Br  0.59795516  0.15952022  0.50945719     0.00700
Br1000     Br  0.72895971  0.23786758  0.46550779    -0.03700
N1001       N  0.00009382  0.47335532  0.55142617    -0.35700
N1002       N  0.95176441  0.00039419  0.00048782    -0.56300
N1003       N  0.50051431  0.02871354  0.95093891    -0.35700
N1004       N  0.54991550  0.00072720  0.00133374    -0.56300
C1005       C  0.97421201  0.45748702  0.56463790     0.27900
C1006       C  0.52578466  0.45635187  0.56409405     0.27900
C1007       C  0.97460080  0.04516386  0.93819058     0.27900
C1008       C  0.52580890  0.04645069  0.93996226     0.27900
C1009       C  0.93197009  0.48636482  0.52639059     0.36500
C1010       C  0.93279784  0.01442729  0.97310076     0.36500
C1011       C  0.56843745  0.48439283  0.52635894     0.36500
C1012       C  0.56852875  0.01610198  0.97488614     0.36500
C1013       C  0.98369377  0.43023890  0.58551605    -0.21000
C1014       C  0.51581949  0.42948039  0.58503854    -0.21000
C1015       C  0.98365880  0.07351475  0.91964190    -0.21000
C1016       C  0.51566173  0.07439095  0.92097800    -0.21000
C1017       C  0.90094039  0.49122981  0.51524384    -0.22100
C1018       C  0.90178659  0.00704051  0.98112394    -0.22100
C1019       C  0.59956658  0.48929303  0.51586254    -0.22100
C1020       C  0.59971165  0.00857131  0.98235270    -0.22100
C1021       C  0.94204812  0.46548923  0.55749464    -0.17400
C1022       C  0.55808414  0.46325029  0.55688810    -0.17400
C1023       C  0.55798039  0.03835607  0.94565565    -0.17400
C1024       C  0.94276366  0.03591831  0.94291490    -0.17400
H1025       H  0.96916215  0.41162637  0.59829981     0.15500
H1026       H  0.52996351  0.41011932  0.59738751     0.15500
H1027       H  0.96877474  0.09238512  0.90749515     0.15500
H1028       H  0.52973538  0.09410432  0.90991271     0.15500
H1029       H  0.87994349  0.48194804  0.52890752     0.13800
H1030       H  0.88106235  0.01421555  0.96486832     0.13800
H1031       H  0.62055349  0.47971133  0.52952875     0.13800
H1032       H  0.62028957  0.01651901  0.96652241     0.13800
H1033       H  0.00024515  0.49549910  0.53698177     0.27000
H1034       H  0.50101028  0.00563832  0.96323595     0.27000
O1035       O  0.66627058  0.35989424  0.61639124    -0.56900
C1036       C  0.66751259  0.44480381  0.67093364     0.75700
O1037       O  0.57785557  0.43885224  0.61726987    -0.58100
C1038       C  0.65817579  0.35273707  0.58160906     0.75700
C1039       C  0.59353226  0.35579838  0.67475993     0.78100
Cd1040     Cd  0.62531331  0.40335579  0.62612060     1.37500
O1041       O  0.67077015  0.44061201  0.63402316    -0.56900
O1042       O  0.61288315  0.37586583  0.68858391    -0.55700
C1043       C  0.58192029  0.44464053  0.58089878     0.78000
O1044       O  0.58633060  0.35971759  0.63887059    -0.58100
O1045       O  0.64390089  0.43145845  0.68624015    -0.56600
O1046       O  0.63800070  0.37154146  0.56640045    -0.56500
O1047       O  0.60664263  0.43253078  0.56601073    -0.55700
O1048       O  0.61613041  0.14114120  0.92709741    -0.56900
C1049       C  0.66745608  0.05816948  0.83101936     0.75700
O1050       O  0.57679262  0.06297862  0.88526842    -0.58100
C1051       C  0.64481897  0.14583834  0.93439459     0.75700
C1052       C  0.59950999  0.14907758  0.82287028     0.78100
Cd1053     Cd  0.62302063  0.09903384  0.87642965     1.37500
O1054       O  0.67113279  0.06410138  0.86745483    -0.56900
O1055       O  0.62826573  0.14318519  0.82910580    -0.55700
C1056       C  0.58139631  0.05675668  0.92144936     0.78000
O1057       O  0.58040775  0.13045522  0.84020337    -0.58100
O1058       O  0.64266781  0.06986891  0.81600127    -0.56600
O1059       O  0.66421941  0.12842713  0.91502676    -0.56500
O1060       O  0.60605762  0.06856143  0.93615465    -0.55700
N1061       N  0.74960647  0.03089713  0.80063995    -0.35700
N1062       N  0.79879894  0.00078732  0.75078248    -0.56300
N1063       N  0.74918308  0.47115178  0.69997922    -0.35700
N1064       N  0.70084440  0.00242046  0.75057024    -0.56300
C1065       C  0.77532884  0.04743174  0.81305162     0.27900
C1066       C  0.72384193  0.04777837  0.81338174     0.27900
C1067       C  0.77485366  0.45447690  0.68662658     0.27900
C1068       C  0.72347618  0.45473491  0.68741885     0.27900
C1069       C  0.81766830  0.01681372  0.77644413     0.36500
C1070       C  0.81719029  0.48390230  0.72311568     0.36500
C1071       C  0.68177933  0.01782077  0.77704027     0.36500
C1072       C  0.68139316  0.48262855  0.72718507     0.36500
C1073       C  0.76561237  0.07504968  0.83347621    -0.21000
C1074       C  0.73347073  0.07523912  0.83372921    -0.21000
C1075       C  0.76516097  0.42726448  0.66581897    -0.21000
C1076       C  0.73307962  0.42747084  0.66622304    -0.21000
C1077       C  0.84883889  0.00991382  0.76747153    -0.22100
C1078       C  0.84836379  0.49038460  0.73153674    -0.22100
C1079       C  0.65073499  0.01065917  0.76873982    -0.22100
C1080       C  0.65041204  0.48709183  0.73902643    -0.22100
C1081       C  0.80748859  0.03902046  0.80637214    -0.17400
C1082       C  0.69171833  0.03983131  0.80702606    -0.17400
C1083       C  0.69140289  0.46245724  0.69519360    -0.17400
C1084       C  0.80696921  0.46232107  0.69291063    -0.17400
H1085       H  0.78002544  0.09402670  0.84584307     0.15500
H1086       H  0.71897968  0.09435826  0.84634127     0.15500
H1087       H  0.77955225  0.40821784  0.65288119     0.15500
H1088       H  0.71861762  0.40858428  0.65371120     0.15500
H1089       H  0.86978947  0.01792647  0.78236628     0.13800
H1090       H  0.86919064  0.48254081  0.71581263     0.13800
H1091       H  0.62986393  0.01853632  0.78439611     0.13800
H1092       H  0.62933382  0.47772421  0.72564882     0.13800
H1093       H  0.74965911  0.00825168  0.78689215     0.27000
H1094       H  0.74916106  0.49354920  0.71432023     0.27000
O1095       O  0.82721531  0.43813044  0.63235860    -0.56900
C1096       C  0.85059922  0.35816132  0.56863968     0.75700
O1097       O  0.92091485  0.44236690  0.61789812    -0.58100
C1098       C  0.83112574  0.44419816  0.66874288     0.75700
C1099       C  0.90037921  0.35217996  0.67406672     0.78100
Cd1100     Cd  0.87558911  0.40405767  0.62422464     1.37500
O1101       O  0.83269973  0.37123261  0.59412498    -0.56900
O1102       O  0.91840707  0.36725277  0.65085826    -0.55700
C1103       C  0.91800392  0.44717381  0.58107796     0.78000
O1104       O  0.87234540  0.36228413  0.67554890    -0.58100
O1105       O  0.87845832  0.36837024  0.56765176    -0.56600
O1106       O  0.85621067  0.43305049  0.68363680    -0.56500
O1107       O  0.89460884  0.43379395  0.56511716    -0.55700
O1108       O  0.83689984  0.13263560  0.90375206    -0.56900
C1109       C  0.83180994  0.05704711  0.82983877     0.75700
O1110       O  0.92040528  0.12709051  0.83747058    -0.58100
C1111       C  0.85630750  0.14893896  0.92378830     0.75700
C1112       C  0.91889976  0.05356410  0.91805182     0.78100
Cd1113     Cd  0.87738795  0.09656376  0.87248685     1.37500
O1114       O  0.82825667  0.06377184  0.86616700    -0.56900
O1115       O  0.89407153  0.06587243  0.93251267    -0.55700
C1116       C  0.90151583  0.14247405  0.81531529     0.78000
O1117       O  0.92348702  0.05909892  0.88168071    -0.58100
O1118       O  0.85683796  0.06731940  0.81434236    -0.56600
O1119       O  0.88457979  0.13943873  0.92198324    -0.56500
O1120       O  0.87294476  0.13506997  0.81844391    -0.55700
C1121       C  0.91125977  0.16947709  0.78930685    -0.11100
C1122       C  0.89420630  0.17724689  0.75480781     0.04400
C1123       C  0.89905785  0.20685981  0.73587767    -0.11600
C1124       C  0.92047890  0.22940801  0.75074380     0.19300
C1125       C  0.93877734  0.22110212  0.78381443    -0.08700
C1126       C  0.93445658  0.19108748  0.80245802    -0.01600
H1127       H  0.88496636  0.21298635  0.71033960     0.05800
C1128       C  0.92062225  0.26243487  0.73349711     0.21200
H1129       H  0.94766260  0.18571888  0.82895567     0.10900
C1130       C  0.90464444  0.28754777  0.75340807    -0.15000
C1131       C  0.89925228  0.31756062  0.73528700     0.03900
C1132       C  0.91047046  0.32316943  0.69671056    -0.10300
C1133       C  0.92802843  0.29857847  0.67765662    -0.00300
C1134       C  0.93269342  0.26821994  0.69550811    -0.05500
H1135       H  0.89503002  0.28325481  0.78251898     0.07000
H1136       H  0.93644254  0.30224300  0.64784595     0.10300
Br1137     Br  0.96839644  0.25090548  0.80573421    -0.05200
Br1138     Br  0.86327269  0.14895603  0.73246348    -0.02100
Br1139     Br  0.87589293  0.34981739  0.76439366     0.00700
Br1140     Br  0.95405722  0.23461109  0.66633564    -0.04900
C1141       C  0.84741767  0.17818219  0.94722582    -0.11100
C1142       C  0.82137051  0.19828748  0.93763691     0.04400
C1143       C  0.81739217  0.22836572  0.95660898    -0.11600
C1144       C  0.83844058  0.23849504  0.98570301     0.19300
C1145       C  0.86293773  0.21759096  0.99740614    -0.08700
C1146       C  0.86753701  0.18799692  0.97785260    -0.01600
H1147       H  0.79847883  0.24444242  0.94765565     0.05800
C1148       C  0.83623089  0.27195147  0.50104469     0.21200
H1149       H  0.88732886  0.17283589  0.98623474     0.10900
C1150       C  0.81505637  0.27946700  0.53151142    -0.15000
C1151       C  0.81736451  0.30878982  0.55247056     0.03900
C1152       C  0.84108385  0.33117119  0.54238048    -0.10300
C1153       C  0.86012373  0.32461911  0.50931055    -0.00300
C1154       C  0.85808230  0.29525516  0.48898287    -0.05500
H1155       H  0.79806564  0.26158358  0.54068243     0.07000
H1156       H  0.87816649  0.34155554  0.50065283     0.10300
Br1157     Br  0.88988800  0.22856278  0.54001540    -0.05200
Br1158     Br  0.79157987  0.18765492  0.89727933    -0.02100
Br1159     Br  0.78988121  0.31457788  0.59696526     0.00700
Br1160     Br  0.88653247  0.28763759  0.94646579    -0.03700
C1161       C  0.58998059  0.17693555  0.79732695    -0.11100
C1162       C  0.56016445  0.19256062  0.79923736     0.04400
C1163       C  0.55482286  0.22146258  0.77817151    -0.11600
C1164       C  0.57863970  0.23522914  0.75523257     0.19300
C1165       C  0.60786188  0.21928455  0.75242551    -0.08700
C1166       C  0.61316549  0.19042146  0.77285974    -0.01600
H1167       H  0.53237088  0.23379677  0.78062184     0.05800
C1168       C  0.57425998  0.26744492  0.73667199     0.21200
H1169       H  0.63617674  0.17911280  0.77065338     0.10900
C1170       C  0.58270562  0.29518707  0.75809850    -0.15000
C1171       C  0.58693836  0.32503896  0.73927034     0.03900
C1172       C  0.58233708  0.32755314  0.69798730    -0.10300
C1173       C  0.57104679  0.30026843  0.67741308    -0.00300
C1174       C  0.56733481  0.27037075  0.69630613    -0.05500
H1175       H  0.58803573  0.29310805  0.78923417     0.07000
H1176       H  0.56725983  0.30144339  0.64586378     0.10300
Br1177     Br  0.64211623  0.23740487  0.72316073    -0.05200
Br1178     Br  0.52656882  0.17749755  0.83201839    -0.02100
Br1179     Br  0.60054961  0.36057175  0.77175497     0.00700
Br1180     Br  0.55569732  0.23341369  0.66518098    -0.03700
C1181       C  0.66885285  0.32268161  0.56053456    -0.11100
C1182       C  0.68427073  0.29641025  0.57963594     0.04400
C1183       C  0.68622812  0.26586473  0.56093367    -0.11600
C1184       C  0.67307217  0.26090234  0.52348900     0.19300
C1185       C  0.65950024  0.28740151  0.50365984    -0.08700
C1186       C  0.65807096  0.31790238  0.52175175    -0.01600
H1187       H  0.69667295  0.24573611  0.07558352     0.05800
C1188       C  0.66970791  0.22799776  0.00619691     0.21200
H1189       H  0.64626357  0.33742799  0.50626445     0.10900
C1190       C  0.64293530  0.21000735  0.01548149    -0.15000
C1191       C  0.63539472  0.18195800  0.99411788     0.03900
C1192       C  0.65483247  0.17150290  0.96252319    -0.10300
C1193       C  0.68299937  0.18810077  0.95550154    -0.00300
C1194       C  0.69041799  0.21621624  0.97694728    -0.05500
H1195       H  0.62703428  0.21869052  0.03828600     0.07000
H1196       H  0.69844714  0.18030636  0.93178139     0.10300
Br1197     Br  0.63920334  0.28225953  0.45353386    -0.05200
Br1198     Br  0.70088557  0.29939366  0.63217619    -0.02100
Br1199     Br  0.59826530  0.15912776  0.00971331     0.00700
Br1200     Br  0.72797887  0.23898446  0.96376417    -0.03700
N1201       N  0.00109389  0.97274922  0.05159535    -0.35700
N1202       N  0.95107138  0.50278732  0.50147416    -0.56300
N1203       N  0.50042528  0.53117000  0.45229016    -0.35700
N1204       N  0.54947454  0.50152024  0.50172945    -0.56300
C1205       C  0.97534590  0.95659275  0.06467658     0.27900
C1206       C  0.52686141  0.95566377  0.06393864     0.27900
C1207       C  0.97462594  0.54802293  0.43982607     0.27900
C1208       C  0.52608912  0.54814133  0.44080671     0.27900
C1209       C  0.93281915  0.98456975  0.02611983     0.36500
C1210       C  0.93230950  0.51759695  0.47445426     0.36500
C1211       C  0.56917598  0.98383390  0.02584204     0.36500
C1212       C  0.56837666  0.51687860  0.47559796     0.36500
C1213       C  0.98499392  0.92914912  0.08503387    -0.21000
C1214       C  0.51707348  0.92847029  0.08441828    -0.21000
C1215       C  0.98419384  0.57609245  0.42105306    -0.21000
C1216       C  0.51642979  0.57621393  0.42169441    -0.21000
C1217       C  0.90171340  0.98897962  0.01498371    -0.22100
C1218       C  0.90121861  0.51021001  0.48211807    -0.22100
C1219       C  0.60019546  0.98886071  0.01481768    -0.22100
C1220       C  0.59947545  0.50910937  0.48348297    -0.22100
C1221       C  0.94313773  0.96444214  0.05774990    -0.17400
C1222       C  0.55912038  0.96280008  0.05667637    -0.17400
C1223       C  0.55815194  0.53925181  0.44625920    -0.17400
C1224       C  0.94260383  0.53927232  0.44454532    -0.17400
H1225       H  0.97053278  0.91032069  0.09749121     0.15500
H1226       H  0.53133186  0.90894031  0.09616214     0.15500
H1227       H  0.96960635  0.59521102  0.40890939     0.15500
H1228       H  0.53090337  0.59543494  0.41016711     0.15500
H1229       H  0.88078902  0.98003853  0.02915082     0.13800
H1230       H  0.88055227  0.51775139  0.46600843     0.13800
H1231       H  0.62140954  0.97953306  0.02814363     0.13800
H1232       H  0.62027526  0.51691970  0.46802917     0.13800
H1233       H  0.00102975  0.99507925  0.03750721     0.27000
H1234       H  0.50047911  0.50812248  0.46463637     0.27000
O1235       O  0.66717433  0.85969540  0.11285159    -0.56900
C1236       C  0.66880919  0.94665143  0.17012191     0.75700
O1237       O  0.57864644  0.93783513  0.11692730    -0.58100
C1238       C  0.65681854  0.85240194  0.07906497     0.75700
C1239       C  0.59736569  0.85742846  0.17740680     0.78100
Cd1240     Cd  0.62710965  0.90393094  0.12594656     1.37500
O1241       O  0.67302176  0.94084987  0.13364470    -0.56900
O1242       O  0.62017969  0.87468383  0.18808696    -0.55700
C1243       C  0.58316778  0.94455443  0.08086737     0.78000
O1244       O  0.58615299  0.86347548  0.14363684    -0.58100
O1245       O  0.64447883  0.93443304  0.18507022    -0.56600
O1246       O  0.63576113  0.87121338  0.06592605    -0.56500
O1247       O  0.60864003  0.93379314  0.06645913    -0.55700
O1248       O  0.61892586  0.63813394  0.42734827    -0.56900
C1249       C  0.66806855  0.55505694  0.33206649     0.75700
O1250       O  0.57740193  0.56303637  0.38549951    -0.58100
C1251       C  0.64758419  0.64412897  0.43300038     0.75700
C1252       C  0.60392065  0.64956227  0.32528280     0.78100
Cd1253     Cd  0.62493054  0.59728289  0.37641254     1.37500
O1254       O  0.67142373  0.56049641  0.36866005    -0.56900
O1255       O  0.63233838  0.64178617  0.33084566    -0.55700
C1256       C  0.58193580  0.55690818  0.42174971     0.78000
O1257       O  0.58384320  0.63115777  0.34118639    -0.58100
O1258       O  0.64396522  0.56772106  0.31639907    -0.56600
O1259       O  0.66702770  0.62746254  0.41274730    -0.56500
O1260       O  0.60700809  0.56799515  0.43624803    -0.55700
N1261       N  0.74994763  0.52784255  0.30137657    -0.35700
N1262       N  0.79839594  0.49956586  0.24966258    -0.56300
N1263       N  0.75034673  0.97232361  0.20071730    -0.35700
N1264       N  0.70061785  0.49935920  0.25178581    -0.56300
C1265       C  0.77560806  0.54470021  0.31335899     0.27900
C1266       C  0.72419944  0.54461511  0.31432752     0.27900
C1267       C  0.77595049  0.95474178  0.18882647     0.27900
C1268       C  0.72455960  0.95601221  0.18824298     0.27900
C1269       C  0.81762053  0.51530068  0.27518870     0.36500
C1270       C  0.81809394  0.98425769  0.22524716     0.36500
C1271       C  0.68194540  0.51410767  0.27912759     0.36500
C1272       C  0.68209187  0.98587977  0.22542897     0.36500
C1273       C  0.76585280  0.57231524  0.33372493    -0.21000
C1274       C  0.73375140  0.57223627  0.33437157    -0.21000
C1275       C  0.76612565  0.92705046  0.16914947    -0.21000
C1276       C  0.73405335  0.92786081  0.16871703    -0.21000
C1277       C  0.84866374  0.50933733  0.26479266    -0.22100
C1278       C  0.84915819  0.99034385  0.23459456    -0.22100
C1279       C  0.65084567  0.50641169  0.27207075    -0.22100
C1280       C  0.65093503  0.99113189  0.23600028    -0.22100
C1281       C  0.80773151  0.53673477  0.30601435    -0.17400
C1282       C  0.69213804  0.53639116  0.30849186    -0.17400
C1283       C  0.69246471  0.96466629  0.19450769    -0.17400
C1284       C  0.80812683  0.96215930  0.19544206    -0.17400
H1285       H  0.78018545  0.59153838  0.34566332     0.15500
H1286       H  0.71920573  0.59128241  0.34705133     0.15500
H1287       H  0.78041440  0.90733870  0.15757176     0.15500
H1288       H  0.71948711  0.90881181  0.15679064     0.15500
H1289       H  0.86979496  0.51755889  0.27910371     0.13800
H1290       H  0.87022373  0.98159911  0.22013664     0.13800
H1291       H  0.63030038  0.51394933  0.28865853     0.13800
H1292       H  0.63001908  0.98197198  0.22202104     0.13800
H1293       H  0.75001911  0.50522946  0.28779558     0.27000
H1294       H  0.75040345  0.99522575  0.21394838     0.27000
O1295       O  0.82826436  0.93669868  0.13548779    -0.56900
C1296       C  0.85488978  0.85658586  0.07064683     0.75700
O1297       O  0.92265729  0.94205428  0.11874710    -0.58100
C1298       C  0.83235659  0.94355169  0.17162331     0.75700
C1299       C  0.90270036  0.85292273  0.17605816     0.78100
Cd1300     Cd  0.87755508  0.90391952  0.12629758     1.37500
O1301       O  0.83568673  0.87249808  0.09202514    -0.56900
O1302       O  0.92144359  0.87172755  0.15847735    -0.55700
C1303       C  0.91933000  0.94644850  0.08193413     0.78000
O1304       O  0.87380728  0.85901956  0.17191188    -0.58100
O1305       O  0.88345263  0.86424331  0.07361222    -0.56600
O1306       O  0.85776650  0.93300372  0.18631822    -0.56500
O1307       O  0.89574211  0.93296180  0.06655815    -0.55700
O1308       O  0.83453728  0.63216678  0.40274292    -0.56900
C1309       C  0.83201444  0.55505988  0.32921995     0.75700
O1310       O  0.91829129  0.62579425  0.33312639    -0.58100
C1311       C  0.85396520  0.64960881  0.42131638     0.75700
C1312       C  0.91892470  0.55663655  0.41900241     0.78100
Cd1313     Cd  0.87613973  0.59687156  0.37122145     1.37500
O1314       O  0.82853165  0.56179013  0.36554846    -0.56900
O1315       O  0.89344111  0.56818590  0.43255434    -0.55700
C1316       C  0.89899725  0.64237452  0.31283304     0.78000
O1317       O  0.92395171  0.56207191  0.38270290    -0.58100
O1318       O  0.85663861  0.56602117  0.31344350    -0.56600
O1319       O  0.88250961  0.64131188  0.41827865    -0.56500
O1320       O  0.87031013  0.63640365  0.31832503    -0.55700
C1321       C  0.90877354  0.66911901  0.28641702    -0.11100
C1322       C  0.89031570  0.67869569  0.25372568     0.04400
C1323       C  0.89650374  0.70793952  0.23447454    -0.11600
C1324       C  0.92029983  0.72855479  0.24772928     0.19300
C1325       C  0.93938940  0.71866285  0.27934846    -0.08700
C1326       C  0.93409760  0.68876482  0.29776323    -0.01600
H1327       H  0.88142953  0.71558611  0.21046060     0.05800
C1328       C  0.92099158  0.76218663  0.23253047     0.21200
H1329       H  0.94816397  0.68222529  0.32315732     0.10900
C1330       C  0.90117614  0.78528550  0.25038802    -0.15000
C1331       C  0.89711752  0.81606838  0.23402168     0.03900
C1332       C  0.91295983  0.82428711  0.19898087    -0.10300
C1333       C  0.93461908  0.80197937  0.18257826    -0.00300
C1334       C  0.93856702  0.77093279  0.19903372    -0.05500
H1335       H  0.88787938  0.77888900  0.27645927     0.07000
H1336       H  0.94687447  0.80785598  0.15554150     0.10300
Br1337     Br  0.97036982  0.74702303  0.30107116    -0.05200
Br1338     Br  0.85535199  0.65386175  0.23492728    -0.02100
Br1339     Br  0.86907683  0.84590534  0.26031870     0.00700
Br1340     Br  0.96656951  0.74057099  0.17375974    -0.04900
C1341       C  0.84492117  0.67869696  0.44481188    -0.11100
C1342       C  0.82079854  0.70051316  0.43322638     0.04400
C1343       C  0.81799960  0.73094298  0.45184411    -0.11600
C1344       C  0.83806317  0.73941385  0.48287685     0.19300
C1345       C  0.85989388  0.71647758  0.49693359    -0.08700
C1346       C  0.86365339  0.68678118  0.47743353    -0.01600
H1347       H  0.80074167  0.74835389  0.44142169     0.05800
C1348       C  0.83752466  0.77232769  0.99974976     0.21200
H1349       H  0.88174047  0.67010160  0.48745344     0.10900
C1350       C  0.81714662  0.77972412  0.03107819    -0.15000
C1351       C  0.82132303  0.80785758  0.05383088     0.03900
C1352       C  0.84550362  0.82974681  0.04413685    -0.10300
C1353       C  0.86439374  0.82319936  0.01096756    -0.00300
C1354       C  0.86087985  0.79463234  0.98919256    -0.05500
H1355       H  0.79964959  0.76223660  0.03987576     0.07000
H1356       H  0.88323078  0.83950993  0.00323198     0.10300
Br1357     Br  0.88564020  0.72495971  0.04237551    -0.05200
Br1358     Br  0.79233961  0.69129587  0.39089850    -0.02100
Br1359     Br  0.79694865  0.81177773  0.10126672     0.00700
Br1360     Br  0.89067243  0.78584419  0.44763657    -0.03700
C1361       C  0.59590837  0.67924712  0.30220247    -0.11100
C1362       C  0.56640389  0.69547514  0.30409155     0.04400
C1363       C  0.56196247  0.72498956  0.28407995    -0.11600
C1364       C  0.58653451  0.73908640  0.26280736     0.19300
C1365       C  0.61588200  0.72328144  0.26131274    -0.08700
C1366       C  0.62019694  0.69361603  0.28030460    -0.01600
H1367       H  0.53948448  0.73738462  0.28578480     0.05800
C1368       C  0.58194618  0.77056837  0.24270510     0.21200
H1369       H  0.64317001  0.68215947  0.27867945     0.10900
C1370       C  0.58868240  0.79939384  0.26301986    -0.15000
C1371       C  0.59104800  0.82886994  0.24283037     0.03900
C1372       C  0.58677646  0.82967835  0.20150009    -0.10300
C1373       C  0.57722817  0.80126535  0.18196103    -0.00300
C1374       C  0.57500033  0.77183594  0.20219772    -0.05500
H1375       H  0.59363234  0.79867287  0.29434393     0.07000
H1376       H  0.57376862  0.80133829  0.15030742     0.10300
Br1377     Br  0.65131252  0.74205728  0.23507496    -0.05200
Br1378     Br  0.53200111  0.68041715  0.33552048    -0.02100
Br1379     Br  0.60067019  0.86701057  0.27314065     0.00700
Br1380     Br  0.56503163  0.73337937  0.17285627    -0.03700
C1381       C  0.66624215  0.82242766  0.05683408    -0.11100
C1382       C  0.68664359  0.79810537  0.07211058     0.04400
C1383       C  0.68943857  0.76789091  0.05280814    -0.11600
C1384       C  0.67206118  0.76124761  0.01866738     0.19300
C1385       C  0.65294457  0.78576440  0.00254596    -0.08700
C1386       C  0.65054654  0.81597492  0.02116028    -0.01600
H1387       H  0.70394428  0.74881148  0.56613921     0.05800
C1388       C  0.67051023  0.72774974  0.50296806     0.21200
H1389       H  0.63473562  0.83387827  0.00861984     0.10900
C1390       C  0.64403405  0.70938774  0.51222671    -0.15000
C1391       C  0.63723745  0.68094574  0.49149518     0.03900
C1392       C  0.65720604  0.67033564  0.46050291    -0.10300
C1393       C  0.68518265  0.68736251  0.45349231    -0.00300
C1394       C  0.69190879  0.71591872  0.47454470    -0.05500
H1395       H  0.62768534  0.71815140  0.53448699     0.07000
H1396       H  0.70102045  0.67948073  0.43022053     0.10300
Br1397     Br  0.62754730  0.77815419  0.95668516    -0.05200
Br1398     Br  0.70977043  0.80323300  0.12024179    -0.02100
Br1399     Br  0.60000050  0.65822327  0.50703305     0.00700
Br1400     Br  0.72943750  0.73909522  0.46216982    -0.03700
N1401       N  0.00108161  0.97274493  0.55172885    -0.35700
N1402       N  0.95114763  0.50308877  0.00159062    -0.56300
N1403       N  0.50033452  0.53119488  0.95226222    -0.35700
N1404       N  0.54938320  0.50150138  0.00160799    -0.56300
C1405       C  0.97530407  0.95667717  0.56487294     0.27900
C1406       C  0.52676126  0.95557130  0.56385176     0.27900
C1407       C  0.97473492  0.54818503  0.93978524     0.27900
C1408       C  0.52600341  0.54813531  0.94073816     0.27900
C1409       C  0.93278444  0.98486080  0.52647729     0.36500
C1410       C  0.93239023  0.51791683  0.97458054     0.36500
C1411       C  0.56909645  0.98375651  0.52583931     0.36500
C1412       C  0.56826939  0.51675419  0.97537086     0.36500
C1413       C  0.98490306  0.92921303  0.58523162    -0.21000
C1414       C  0.51694984  0.92836170  0.58427852    -0.21000
C1415       C  0.98433636  0.57618599  0.92088890    -0.21000
C1416       C  0.51636358  0.57623037  0.92166045    -0.21000
C1417       C  0.90165668  0.98944478  0.51553950    -0.22100
C1418       C  0.90128954  0.51060795  0.98231372    -0.22100
C1419       C  0.60012009  0.98877122  0.51483748    -0.22100
C1420       C  0.59936084  0.50885262  0.98309617    -0.22100
C1421       C  0.94310897  0.96463893  0.55801687    -0.17400
C1422       C  0.55902260  0.96270567  0.55664347    -0.17400
C1423       C  0.55805080  0.53917477  0.94609902    -0.17400
C1424       C  0.94270400  0.53950163  0.94457901    -0.17400
H1425       H  0.97040511  0.91044146  0.59774784     0.15500
H1426       H  0.53119816  0.90882631  0.59603061     0.15500
H1427       H  0.96977057  0.59529241  0.90867673     0.15500
H1428       H  0.53085057  0.59543198  0.91011171     0.15500
H1429       H  0.88074458  0.98063660  0.52986586     0.13800
H1430       H  0.88061967  0.51816904  0.96622555     0.13800
H1431       H  0.62132183  0.97939738  0.52814786     0.13800
H1432       H  0.62014207  0.51655320  0.96751757     0.13800
H1433       H  0.00105434  0.99506709  0.53762224     0.27000
H1434       H  0.50036702  0.50813903  0.96458993     0.27000
O1435       O  0.66737000  0.85987529  0.61299448    -0.56900
C1436       C  0.66869301  0.94665960  0.67011042     0.75700
O1437       O  0.57851515  0.93779559  0.61694319    -0.58100
C1438       C  0.65682561  0.85230885  0.57938469     0.75700
C1439       C  0.59713993  0.85736717  0.67747140     0.78100
Cd1440     Cd  0.62696756  0.90386889  0.62606470     1.37500
O1441       O  0.67279300  0.94093561  0.63359647    -0.56900
O1442       O  0.61968650  0.87489720  0.68839266    -0.55700
C1443       C  0.58304748  0.94446164  0.58087112     0.78000
O1444       O  0.58619421  0.86318215  0.64350844    -0.58100
O1445       O  0.64447832  0.93429924  0.68518776    -0.56600
O1446       O  0.63551141  0.87085606  0.56634916    -0.56500
O1447       O  0.60851312  0.93365823  0.56649181    -0.55700
O1448       O  0.61883350  0.63795070  0.92739188    -0.56900
C1449       C  0.66805020  0.55486185  0.83215216     0.75700
O1450       O  0.57729312  0.56298934  0.88536545    -0.58100
C1451       C  0.64748438  0.64403722  0.93294058     0.75700
C1452       C  0.60379313  0.64941235  0.82527201     0.78100
Cd1453     Cd  0.62486425  0.59715340  0.87637169     1.37500
O1454       O  0.67133445  0.56030097  0.86875552    -0.56900
O1455       O  0.63221294  0.64156343  0.83067827    -0.55700
C1456       C  0.58184202  0.55680655  0.92159823     0.78000
O1457       O  0.58372650  0.63107949  0.84131542    -0.58100
O1458       O  0.64399768  0.56756437  0.81640389    -0.56600
O1459       O  0.66692954  0.62741784  0.91263582    -0.56500
O1460       O  0.60694528  0.56781393  0.93610326    -0.55700
N1461       N  0.74995516  0.52755303  0.80159307    -0.35700
N1462       N  0.79839436  0.49933397  0.74980062    -0.56300
N1463       N  0.75022419  0.97240482  0.70070562    -0.35700
N1464       N  0.70061927  0.49906934  0.75198776    -0.56300
C1465       C  0.77562204  0.54438605  0.81361382     0.27900
C1466       C  0.72420649  0.54431931  0.81456479     0.27900
C1467       C  0.77583537  0.95482397  0.68885428     0.27900
C1468       C  0.72444907  0.95610873  0.68815550     0.27900
C1469       C  0.81762502  0.51503341  0.77535197     0.36500
C1470       C  0.81795589  0.98426797  0.72542699     0.36500
C1471       C  0.68194796  0.51384129  0.77931171     0.36500
C1472       C  0.68196948  0.98602356  0.72524058     0.36500
C1473       C  0.76586814  0.57196437  0.83405552    -0.21000
C1474       C  0.73376710  0.57189786  0.83468776    -0.21000
C1475       C  0.76602907  0.92715494  0.66911277    -0.21000
C1476       C  0.73395794  0.92797708  0.66860314    -0.21000
C1477       C  0.84866686  0.50905487  0.76495718    -0.22100
C1478       C  0.84901641  0.99032263  0.73483168    -0.22100
C1479       C  0.65084897  0.50613176  0.77227265    -0.22100
C1480       C  0.65080246  0.99135010  0.73568955    -0.22100
C1481       C  0.80774790  0.53645544  0.80619899    -0.17400
C1482       C  0.69213723  0.53614304  0.80865833    -0.17400
C1483       C  0.69235243  0.96474994  0.69439877    -0.17400
C1484       C  0.80800290  0.96222615  0.69554780    -0.17400
H1485       H  0.78019650  0.59117207  0.84603673     0.15500
H1486       H  0.71923064  0.59093583  0.84740057     0.15500
H1487       H  0.78032992  0.90745140  0.65753705     0.15500
H1488       H  0.71940112  0.90895053  0.65660505     0.15500
H1489       H  0.86979673  0.51724919  0.77929835     0.13800
H1490       H  0.87008739  0.98157188  0.72039101     0.13800
H1491       H  0.63030637  0.51368332  0.78885750     0.13800
H1492       H  0.62990701  0.98221372  0.72163155     0.13800
H1493       H  0.75002350  0.50497127  0.78793858     0.27000
H1494       H  0.75028174  0.99529283  0.71396965     0.27000
O1495       O  0.82817257  0.93691532  0.63552879    -0.56900
C1496       C  0.85486163  0.85681765  0.57048812     0.75700
O1497       O  0.92254512  0.94222211  0.61894838    -0.58100
C1498       C  0.83223662  0.94366005  0.67170028     0.75700
C1499       C  0.90245564  0.85303683  0.67596775     0.78100
Cd1500     Cd  0.87742030  0.90409489  0.62628608     1.37500
O1501       O  0.83559824  0.87287971  0.59162133    -0.56900
O1502       O  0.92122972  0.87186038  0.65846974    -0.55700
C1503       C  0.91927340  0.94664243  0.58213401     0.78000
O1504       O  0.87356615  0.85914466  0.67178719    -0.58100
O1505       O  0.88344803  0.86429873  0.57375221    -0.56600
O1506       O  0.85761189  0.93303103  0.68640209    -0.56500
O1507       O  0.89571002  0.93317464  0.56667451    -0.55700
O1508       O  0.83453447  0.63189495  0.90301314    -0.56900
C1509       C  0.83204710  0.55483927  0.82931429     0.75700
O1510       O  0.91810258  0.62588268  0.83284701    -0.58100
C1511       C  0.85398784  0.64949748  0.92132208     0.75700
C1512       C  0.91903242  0.55681879  0.91898690     0.78100
Cd1513     Cd  0.87614450  0.59683909  0.87111433     1.37500
O1514       O  0.82863232  0.56158390  0.86564855    -0.56900
O1515       O  0.89357600  0.56843072  0.93252996    -0.55700
C1516       C  0.89872059  0.64237878  0.81258070     0.78000
O1517       O  0.92401846  0.56212031  0.88264605    -0.58100
O1518       O  0.85660645  0.56585917  0.81343827    -0.56600
O1519       O  0.88256685  0.64144330  0.91789431    -0.56500
O1520       O  0.87006537  0.63628390  0.81813436    -0.55700
C1521       C  0.90837904  0.66917392  0.78615534    -0.11100
C1522       C  0.88972119  0.67892688  0.75371006     0.04400
C1523       C  0.89593388  0.70816133  0.73445635    -0.11600
C1524       C  0.91992245  0.72862358  0.74749727     0.19300
C1525       C  0.93916134  0.71859493  0.77890594    -0.08700
C1526       C  0.93386868  0.68868142  0.79728018    -0.01600
H1527       H  0.88073121  0.71593457  0.71062885     0.05800
C1528       C  0.92067620  0.76226100  0.73234164     0.21200
H1529       H  0.94808350  0.68202854  0.82250056     0.10900
C1530       C  0.90092103  0.78538359  0.75025695    -0.15000
C1531       C  0.89686981  0.81616859  0.73390270     0.03900
C1532       C  0.91268599  0.82437424  0.69884188    -0.10300
C1533       C  0.93428488  0.80203853  0.68237201    -0.00300
C1534       C  0.93820460  0.77097941  0.69879554    -0.05500
H1535       H  0.88764717  0.77899687  0.77635029     0.07000
H1536       H  0.94650193  0.80790289  0.65530345     0.10300
Br1537     Br  0.97033644  0.74681053  0.80046254    -0.05200
Br1538     Br  0.85442651  0.65441316  0.73527255    -0.02100
Br1539     Br  0.86884203  0.84600934  0.76021429     0.00700
Br1540     Br  0.96606419  0.74055344  0.67338183    -0.04900
C1541       C  0.84492928  0.67849175  0.94496897    -0.11100
C1542       C  0.82060498  0.70016882  0.93367782     0.04400
C1543       C  0.81779876  0.73058655  0.95232005    -0.11600
C1544       C  0.83803255  0.73914726  0.98313939     0.19300
C1545       C  0.86002544  0.71629581  0.99700210    -0.08700
C1546       C  0.86382072  0.68664056  0.97742148    -0.01600
H1547       H  0.80039971  0.74791953  0.94207863     0.05800
C1548       C  0.83756160  0.77259030  0.49950979     0.21200
H1549       H  0.88204535  0.67004179  0.98724941     0.10900
C1550       C  0.81715050  0.77999078  0.53080619    -0.15000
C1551       C  0.82130080  0.80812732  0.55356324     0.03900
C1552       C  0.84550806  0.82999962  0.54393169    -0.10300
C1553       C  0.86445435  0.82343923  0.51081591    -0.00300
C1554       C  0.86094384  0.79488307  0.48901073    -0.05500
H1555       H  0.79963245  0.76251240  0.53956416     0.07000
H1556       H  0.88331749  0.83973735  0.50314122     0.10300
Br1557     Br  0.88537282  0.72508756  0.54244071    -0.05200
Br1558     Br  0.79184573  0.69075495  0.89174044    -0.02100
Br1559     Br  0.79684260  0.81209498  0.60092906     0.00700
Br1560     Br  0.89058537  0.78559783  0.94778967    -0.03700
C1561       C  0.59577335  0.67909425  0.80219646    -0.11100
C1562       C  0.56633767  0.69544227  0.80427793     0.04400
C1563       C  0.56192386  0.72496333  0.78427182    -0.11600
C1564       C  0.58644103  0.73892222  0.76276331     0.19300
C1565       C  0.61571673  0.72298601  0.76106098    -0.08700
C1566       C  0.62001098  0.69333475  0.78008800    -0.01600
H1567       H  0.53950895  0.73746174  0.78613911     0.05800
C1568       C  0.58186673  0.77039637  0.74263489     0.21200
H1569       H  0.64293269  0.68178153  0.77831017     0.10900
C1570       C  0.58838005  0.79924790  0.76301633    -0.15000
C1571       C  0.59068694  0.82875098  0.74286531     0.03900
C1572       C  0.58659333  0.82955694  0.70150404    -0.10300
C1573       C  0.57726453  0.80109885  0.68188519    -0.00300
C1574       C  0.57508783  0.77164991  0.70208238    -0.05500
H1575       H  0.59318581  0.79853822  0.79437638     0.07000
H1576       H  0.57392844  0.80116325  0.65021043     0.10300
Br1577     Br  0.65109679  0.74156440  0.73451010    -0.05200
Br1578     Br  0.53199525  0.68051701  0.83590964    -0.02100
Br1579     Br  0.59995022  0.86693056  0.77328498     0.00700
Br1580     Br  0.56537580  0.73316867  0.67264426    -0.03700
C1581       C  0.66634422  0.82233719  0.55721058    -0.11100
C1582       C  0.68662781  0.79796985  0.57262632     0.04400
C1583       C  0.68943922  0.76774791  0.55333417    -0.11600
C1584       C  0.67220734  0.76115470  0.51905780     0.19300
C1585       C  0.65322975  0.78572428  0.50280318    -0.08700
C1586       C  0.65081534  0.81593089  0.52141088    -0.01600
H1587       H  0.70405249  0.74899504  0.06550918     0.05800
C1588       C  0.67037697  0.72783083  0.00261531     0.21200
H1589       H  0.63511463  0.83387762  0.50874682     0.10900
C1590       C  0.64397399  0.70941374  0.01203823    -0.15000
C1591       C  0.63717467  0.68093347  0.99138561     0.03900
C1592       C  0.65709794  0.67030984  0.96035248    -0.10300
C1593       C  0.68500623  0.68740572  0.95317017    -0.00300
C1594       C  0.69170914  0.71602524  0.97410058    -0.05500
H1595       H  0.62766936  0.71817093  0.03435310     0.07000
H1596       H  0.70079332  0.67953504  0.92983864     0.10300
Br1597     Br  0.62801532  0.77820529  0.45676193    -0.05200
Br1598     Br  0.70952488  0.80303301  0.62094259    -0.02100
Br1599     Br  0.59996901  0.65821596  0.00704871     0.00700
Br1600     Br  0.72908134  0.73934075  0.96138771    -0.03700
loop_ 
_geom_bond_atom_site_label_1 
_geom_bond_atom_site_label_2 
_geom_bond_distance 
_geom_bond_site_symmetry_2 
_ccdc_geom_bond_type 
N1           H33   1.038       .  S
N1            C5   1.363       .  A
N1          C806   1.363       .  A
N2           C10   1.359       .  A
N2          C609   1.358   1_545  A
N3           H34   1.040       .  S
N3            C8   1.360       .  A
N3          C807   1.360   1_455  A
N4           C12   1.358       .  A
N4          C611   1.358   1_545  A
C5           C13   1.387       .  A
C5           C21   1.427       .  A
C6          N801   1.363       .  A
C6           C22   1.427       .  A
C6           C14   1.387       .  A
C7          N803   1.360       .  A
C7           C15   1.387       .  A
C7           C24   1.420       .  A
C8           C23   1.421       .  A
C8           C16   1.387       .  A
C9          N602   1.359       .  A
C9           C21   1.428       .  A
C9           C17   1.388       .  A
C10          C24   1.423       .  A
C10          C18   1.384       .  A
C11         N604   1.358       .  A
C11          C19   1.388       .  A
C11          C22   1.428       .  A
C12          C20   1.385       .  A
C12          C23   1.424       .  A
C13         C814   1.365       .  A
C13          H25   1.082       .  S
C14         C813   1.365   1_455  A
C14          H26   1.081       .  S
C15         C816   1.365       .  A
C15          H27   1.082       .  S
C16         C815   1.365   1_455  A
C16          H28   1.082       .  S
C17         C618   1.372   1_554  A
C17          H29   1.080       .  S
C18         C617   1.371   1_545  A
C18          H30   1.081       .  S
C19         C620   1.371   1_554  A
C19          H31   1.080       .  S
C20         C619   1.371   1_545  A
C20          H32   1.081       .  S
C21         C103   1.508       .  S
C22          C43   1.508       .  S
C23          C56   1.503       .  S
C24         C112   1.506       .  S
O35          C38   1.263       .  A
O35         Cd40   2.509       .  S
C36          C83   1.500       .  S
C36          O45   1.262       .  A
C36          O41   1.269       .  A
O37          C43   1.269       .  A
O37         Cd40   2.502       .  S
C38         C181   1.493       .  S
C38          O46   1.264       .  A
C39         C172   1.490       .  S
C39          O44   1.266       .  A
C39          O42   1.262       .  A
Cd40         O47   2.498       .  S
Cd40         O46   2.461       .  S
Cd40         O45   2.473       .  S
Cd40         O41   2.495       .  S
Cd40         O44   2.497       .  S
Cd40         O42   2.464       .  S
C43          O47   1.264       .  A
O48          C51   1.263       .  A
O48         Cd53   2.450       .  S
C49          C82   1.508       .  S
C49          O58   1.265       .  A
C49          O54   1.268       .  A
O50          C56   1.270       .  A
O50         Cd53   2.496       .  S
C51         C192   1.486       .  S
C51          O59   1.269       .  A
C52         C161   1.495       .  S
C52          O57   1.269       .  A
C52          O55   1.264       .  A
Cd53         O60   2.498       .  S
Cd53         O59   2.508       .  S
Cd53         O58   2.508       .  S
Cd53         O54   2.510       .  S
Cd53         O57   2.543       .  S
Cd53         O55   2.444       .  S
C56          O60   1.263       .  A
N61          H93   1.041       .  S
N61          C66   1.362       .  A
N61          C65   1.361       .  A
N62          C69   1.358       .  A
N62         C470   1.359   1_545  A
N63          H94   1.041       .  S
N63          C68   1.360       .  A
N63          C67   1.361       .  A
N64          C71   1.360       .  A
N64         C472   1.359   1_545  A
C65          C73   1.388       .  A
C65          C81   1.426       .  A
C66          C82   1.426       .  A
C66          C74   1.387       .  A
C67          C75   1.388       .  A
C67          C84   1.424       .  A
C68          C83   1.423       .  A
C68          C76   1.388       .  A
C69          C81   1.427       .  A
C69          C77   1.387       .  A
C70         N462   1.358       .  A
C70          C84   1.424       .  A
C70          C78   1.386       .  A
C71          C79   1.386       .  A
C71          C82   1.426       .  A
C72         N464   1.357       .  A
C72          C80   1.388       .  A
C72          C83   1.425       .  A
C73          C74   1.368       .  A
C73          H85   1.082       .  S
C74          H86   1.082       .  S
C75          C76   1.366       .  A
C75          H87   1.082       .  S
C76          H88   1.082       .  S
C77         C478   1.366   1_545  A
C77          H89   1.079       .  S
C78         C477   1.366       .  A
C78          H90   1.080       .  S
C79         C480   1.371   1_545  A
C79          H91   1.081       .  S
C80         C479   1.370       .  A
C80          H92   1.080       .  S
C81         C109   1.506       .  S
C84          C98   1.504       .  S
O95          C98   1.269       .  A
O95        Cd100   2.496       .  S
C96         C152   1.481       .  S
C96         O105   1.262       .  A
C96         O101   1.266       .  A
O97         C103   1.271       .  A
O97        Cd100   2.514       .  S
C98         O106   1.265       .  A
C99         C132   1.485       .  S
C99         O104   1.261       .  A
C99         O102   1.267       .  A
Cd100       O107   2.493       .  S
Cd100       O106   2.472       .  S
Cd100       O105   2.414       .  S
Cd100       O101   2.499       .  S
Cd100       O104   2.459       .  S
Cd100       O102   2.532       .  S
C103        O107   1.264       .  A
O108        C111   1.266       .  A
O108       Cd113   2.496       .  S
C109        O118   1.264       .  A
C109        O114   1.269       .  A
O110        C116   1.269       .  A
O110       Cd113   2.529       .  S
C111        C141   1.486       .  S
C111        O119   1.263       .  A
C112        O117   1.270       .  A
C112        O115   1.265       .  A
Cd113       O120   2.437       .  S
Cd113       O119   2.453       .  S
Cd113       O118   2.470       .  S
Cd113       O114   2.509       .  S
Cd113       O117   2.507       .  S
Cd113       O115   2.502       .  S
C116        C121   1.485       .  S
C116        O120   1.261       .  A
C121        C122   1.414       .  A
C121        C126   1.407       .  A
C122        C123   1.398       .  A
C122       Br138   1.921       .  S
C123        C124   1.400       .  A
C123        H127   1.084       .  S
C124        C125   1.408       .  A
C124        C128   1.484       .  S
C125        C126   1.405       .  A
C125       Br137   1.916       .  S
C126        H129   1.083       .  S
C128        C130   1.402       .  A
C128        C134   1.408       .  A
C130        C131   1.401       .  A
C130        H135   1.084       .  S
C131        C132   1.413       .  A
C131       Br139   1.920       .  S
C132        C133   1.407       .  A
C133        C134   1.405       .  A
C133        H136   1.083       .  S
C134       Br140   1.919       .  S
C141        C142   1.417       .  A
C141        C146   1.407       .  A
C142        C143   1.402       .  A
C142       Br158   1.919       .  S
C143        C144   1.398       .  A
C143        H147   1.083       .  S
C144        C145   1.405       .  A
C144        C348   1.474       .  S
C145        C146   1.397       .  A
C145       Br357   1.922       .  S
C146        H149   1.083       .  S
C148        C150   1.401       .  A
C148        C154   1.405   1_554  A
C148        C344   1.474   1_554  S
C150        C151   1.403       .  A
C150        H155   1.084       .  S
C151        C152   1.416       .  A
C151       Br159   1.920       .  S
C152        C153   1.406       .  A
C153        C154   1.393   1_554  A
C153        H156   1.084       .  S
C154       Br360   1.920       .  S
Br157       C345   1.922   1_554  S
Br160       C354   1.920       .  S
C161        C162   1.419       .  A
C161        C166   1.408       .  A
C162        C163   1.409       .  A
C162       Br178   1.919       .  S
C163        C164   1.402       .  A
C163        H167   1.081       .  S
C164        C165   1.404       .  A
C164        C168   1.482       .  S
C165        C166   1.396       .  A
C165       Br177   1.921       .  S
C166        H169   1.083       .  S
C168        C170   1.401       .  A
C168        C174   1.406       .  A
C170        C171   1.401       .  A
C170        H175   1.084       .  S
C171        C172   1.418       .  A
C171       Br179   1.922       .  S
C172        C173   1.409       .  A
C173        C174   1.401       .  A
C173        H176   1.083       .  S
C174       Br180   1.917       .  S
C181        C182   1.420       .  A
C181        C186   1.407       .  A
C182        C183   1.408       .  A
C182       Br198   1.921       .  S
C183        C184   1.403       .  A
C183        H387   1.083       .  S
C184        C185   1.405       .  A
C184        C388   1.483       .  S
C185        C186   1.396       .  A
C185       Br197   1.919   1_554  S
C186        H189   1.083       .  S
H187        C383   1.083       .  S
C188        C190   1.402       .  A
C188        C194   1.407       .  A
C188        C384   1.483       .  S
C190        C191   1.401       .  A
C190        H195   1.084       .  S
C191        C192   1.415       .  A
C191       Br199   1.922       .  S
C192        C193   1.407       .  A
C193        C194   1.403       .  A
C193        H196   1.083       .  S
C194       Br200   1.914       .  S
N201        H233   1.038       .  S
N201       C1006   1.363       .  A
N201        C205   1.363       .  A
N202        C409   1.358   1_545  A
N202        C210   1.359   1_554  A
N203        H234   1.040       .  S
N203        C208   1.359       .  A
N203       C1007   1.360   1_455  A
N204        C411   1.358   1_545  A
N204        C212   1.358   1_554  A
C205        C213   1.387       .  A
C205        C221   1.427       .  A
C206       N1001   1.363       .  A
C206        C222   1.428       .  A
C206        C214   1.388       .  A
C207       N1003   1.360       .  A
C207        C215   1.387       .  A
C207        C224   1.420       .  A
C208        C223   1.420       .  A
C208        C216   1.387       .  A
C209        N402   1.359       .  A
C209        C221   1.428       .  A
C209        C217   1.388       .  A
C210        C224   1.423       .  A
C210        C218   1.384       .  A
C211        N404   1.358       .  A
C211        C219   1.388       .  A
C211        C222   1.428       .  A
C212        C220   1.385       .  A
C212        C223   1.424       .  A
C213       C1014   1.365       .  A
C213        H225   1.082       .  S
C214       C1013   1.365   1_455  A
C214        H226   1.081       .  S
C215       C1016   1.365       .  A
C215        H227   1.082       .  S
C216       C1015   1.365   1_455  A
C216        H228   1.082       .  S
C217        C418   1.372       .  A
C217        H229   1.080       .  S
C218        C417   1.371   1_546  A
C218        H230   1.081       .  S
C219        C420   1.371       .  A
C219        H231   1.080       .  S
C220        C419   1.371   1_546  A
C220        H232   1.081       .  S
C221        C303   1.508       .  S
C222        C243   1.508       .  S
C223        C256   1.503       .  S
C224        C312   1.506       .  S
O235        C238   1.263       .  A
O235       Cd240   2.507       .  S
C236        C283   1.500       .  S
C236        O245   1.262       .  A
C236        O241   1.269       .  A
O237        C243   1.269       .  A
O237       Cd240   2.502       .  S
C238        C381   1.493       .  S
C238        O246   1.264       .  A
C239        C372   1.489       .  S
C239        O244   1.266       .  A
C239        O242   1.262       .  A
Cd240       O247   2.497       .  S
Cd240       O246   2.461       .  S
Cd240       O245   2.473       .  S
Cd240       O241   2.495       .  S
Cd240       O244   2.497       .  S
Cd240       O242   2.464       .  S
C243        O247   1.264       .  A
O248        C251   1.263       .  A
O248       Cd253   2.450       .  S
C249        C282   1.509       .  S
C249        O258   1.265       .  A
C249        O254   1.268       .  A
O250        C256   1.269       .  A
O250       Cd253   2.496       .  S
C251        C392   1.486       .  S
C251        O259   1.269       .  A
C252        C361   1.495       .  S
C252        O257   1.269       .  A
C252        O255   1.264       .  A
Cd253       O260   2.497       .  S
Cd253       O259   2.508       .  S
Cd253       O258   2.509       .  S
Cd253       O254   2.510       .  S
Cd253       O257   2.540       .  S
Cd253       O255   2.444       .  S
C256        O260   1.263       .  A
N261        H293   1.041       .  S
N261        C266   1.362       .  A
N261        C265   1.361       .  A
N262        C269   1.358       .  A
N262        C670   1.359   1_545  A
N263        H294   1.041       .  S
N263        C268   1.360       .  A
N263        C267   1.361       .  A
N264        C271   1.360       .  A
N264        C672   1.359   1_545  A
C265        C273   1.388       .  A
C265        C281   1.426       .  A
C266        C282   1.425       .  A
C266        C274   1.387       .  A
C267        C275   1.388       .  A
C267        C284   1.424       .  A
C268        C283   1.423       .  A
C268        C276   1.388       .  A
C269        C281   1.427       .  A
C269        C277   1.387       .  A
C270        N662   1.358       .  A
C270        C284   1.424       .  A
C270        C278   1.386       .  A
C271        C279   1.386       .  A
C271        C282   1.426       .  A
C272        N664   1.357       .  A
C272        C280   1.388       .  A
C272        C283   1.425       .  A
C273        C274   1.368       .  A
C273        H285   1.082       .  S
C274        H286   1.082       .  S
C275        C276   1.366       .  A
C275        H287   1.082       .  S
C276        H288   1.082       .  S
C277        C678   1.366   1_545  A
C277        H289   1.079       .  S
C278        C677   1.366       .  A
C278        H290   1.080       .  S
C279        C680   1.371   1_545  A
C279        H291   1.081       .  S
C280        C679   1.370       .  A
C280        H292   1.080       .  S
C281        C309   1.506       .  S
C284        C298   1.504       .  S
O295        C298   1.269       .  A
O295       Cd300   2.495       .  S
C296        C352   1.480       .  S
C296        O305   1.262       .  A
C296        O301   1.266       .  A
O297        C303   1.271       .  A
O297       Cd300   2.514       .  S
C298        O306   1.266       .  A
C299        C332   1.485       .  S
C299        O304   1.261       .  A
C299        O302   1.267       .  A
Cd300       O307   2.493       .  S
Cd300       O306   2.473       .  S
Cd300       O305   2.412       .  S
Cd300       O301   2.498       .  S
Cd300       O304   2.458       .  S
Cd300       O302   2.532       .  S
C303        O307   1.264       .  A
O308        C311   1.266       .  A
O308       Cd313   2.497       .  S
C309        O318   1.265       .  A
C309        O314   1.269       .  A
O310        C316   1.269       .  A
O310       Cd313   2.528       .  S
C311        C341   1.485       .  S
C311        O319   1.263       .  A
C312        O317   1.270       .  A
C312        O315   1.265       .  A
Cd313       O320   2.437       .  S
Cd313       O319   2.451       .  S
Cd313       O318   2.470       .  S
Cd313       O314   2.509       .  S
Cd313       O317   2.507       .  S
Cd313       O315   2.502       .  S
C316        C321   1.485       .  S
C316        O320   1.261       .  A
C321        C322   1.414       .  A
C321        C326   1.407       .  A
C322        C323   1.398       .  A
C322       Br338   1.921       .  S
C323        C324   1.400       .  A
C323        H327   1.084       .  S
C324        C325   1.408       .  A
C324        C328   1.484       .  S
C325        C326   1.405       .  A
C325       Br337   1.916       .  S
C326        H329   1.083       .  S
C328        C330   1.402       .  A
C328        C334   1.408       .  A
C330        C331   1.401       .  A
C330        H335   1.084       .  S
C331        C332   1.412       .  A
C331       Br339   1.920       .  S
C332        C333   1.407       .  A
C333        C334   1.405       .  A
C333        H336   1.083       .  S
C334       Br340   1.919       .  S
C341        C342   1.417       .  A
C341        C346   1.407       .  A
C342        C343   1.402       .  A
C342       Br358   1.919       .  S
C343        C344   1.399       .  A
C343        H347   1.083       .  S
C344        C345   1.405       .  A
C345        C346   1.397       .  A
C346        H349   1.083       .  S
C348        C350   1.401       .  A
C348        C354   1.405       .  A
C350        C351   1.403       .  A
C350        H355   1.084       .  S
C351        C352   1.416       .  A
C351       Br359   1.920       .  S
C352        C353   1.406       .  A
C353        C354   1.392       .  A
C353        H356   1.084       .  S
C361        C362   1.419       .  A
C361        C366   1.408       .  A
C362        C363   1.408       .  A
C362       Br378   1.919       .  S
C363        C364   1.402       .  A
C363        H367   1.081       .  S
C364        C365   1.404       .  A
C364        C368   1.482       .  S
C365        C366   1.396       .  A
C365       Br377   1.921       .  S
C366        H369   1.083       .  S
C368        C370   1.401       .  A
C368        C374   1.406       .  A
C370        C371   1.401       .  A
C370        H375   1.084       .  S
C371        C372   1.417       .  A
C371       Br379   1.922       .  S
C372        C373   1.408       .  A
C373        C374   1.401       .  A
C373        H376   1.083       .  S
C374       Br380   1.917       .  S
C381        C382   1.420       .  A
C381        C386   1.407       .  A
C382        C383   1.408       .  A
C382       Br398   1.921       .  S
C383        C384   1.403       .  A
C384        C385   1.405       .  A
C385        C386   1.396       .  A
C385       Br397   1.919       .  S
C386        H389   1.083       .  S
C388        C390   1.402       .  A
C388        C394   1.407   1_554  A
C390        C391   1.401   1_554  A
C390        H395   1.084       .  S
C391        C392   1.415       .  A
C391       Br399   1.922   1_556  S
C392        C393   1.406       .  A
C393        C394   1.403       .  A
C393        H396   1.083       .  S
C394       Br400   1.914       .  S
N401        H433   1.039       .  S
N401       C1206   1.364       .  A
N401        C405   1.362       .  A
N402        C410   1.360       .  A
N403        H434   1.040       .  S
N403        C408   1.360       .  A
N403       C1207   1.360   1_455  A
N404        C412   1.358       .  A
C405        C413   1.387       .  A
C405        C421   1.426       .  A
C406       N1201   1.364       .  A
C406        C422   1.428       .  A
C406        C414   1.388       .  A
C407       N1203   1.361       .  A
C407        C415   1.387       .  A
C407        C424   1.422       .  A
C408        C423   1.422       .  A
C408        C416   1.388       .  A
C409        C421   1.426       .  A
C409        C417   1.388       .  A
C410        C424   1.426       .  A
C410        C418   1.385       .  A
C411        C419   1.389       .  A
C411        C422   1.429       .  A
C412        C420   1.386       .  A
C412        C423   1.425       .  A
C413       C1214   1.365       .  A
C413        H425   1.082       .  S
C414       C1213   1.365   1_455  A
C414        H426   1.081       .  S
C415       C1216   1.367       .  A
C415        H427   1.082       .  S
C416       C1215   1.367   1_455  A
C416        H428   1.082       .  S
C417        H429   1.080       .  S
C418        H430   1.080       .  S
C419        H431   1.079       .  S
C420        H432   1.080       .  S
C421        C503   1.505       .  S
C422        C443   1.510       .  S
C423        C456   1.504       .  S
C424        C512   1.508       .  S
O435        C438   1.264       .  A
O435       Cd440   2.524       .  S
C436        C483   1.503       .  S
C436        O445   1.262       .  A
C436        O441   1.270       .  A
O437        C443   1.269       .  A
O437       Cd440   2.501       .  S
C438        C581   1.495       .  S
C438        O446   1.263       .  A
C439        C572   1.482       .  S
C439        O444   1.266       .  A
C439        O442   1.261       .  A
Cd440       O447   2.493       .  S
Cd440       O446   2.458       .  S
Cd440       O445   2.478       .  S
Cd440       O441   2.501       .  S
Cd440       O444   2.497       .  S
Cd440       O442   2.452       .  S
C443        O447   1.264       .  A
O448        C451   1.262       .  A
O448       Cd453   2.417       .  S
C449        C482   1.502       .  S
C449        O458   1.266       .  A
C449        O454   1.268       .  A
O450        C456   1.271       .  A
O450       Cd453   2.497       .  S
C451        C592   1.484       .  S
C451        O459   1.269       .  A
C452        C561   1.492       .  S
C452        O457   1.269       .  A
C452        O455   1.263       .  A
Cd453       O460   2.487       .  S
Cd453       O459   2.511       .  S
Cd453       O458   2.496       .  S
Cd453       O454   2.494       .  S
Cd453       O457   2.533       .  S
Cd453       O455   2.425       .  S
C456        O460   1.264       .  A
N461        H493   1.037       .  S
N461        C466   1.361       .  A
N461        C465   1.362       .  A
N462        C469   1.358       .  A
N463        H494   1.043       .  S
N463        C468   1.359       .  A
N463        C467   1.362       .  A
N464        C471   1.357       .  A
C465        C473   1.387       .  A
C465        C481   1.425       .  A
C466        C482   1.424       .  A
C466        C474   1.387       .  A
C467        C475   1.387       .  A
C467        C484   1.424       .  A
C468        C483   1.424       .  A
C468        C476   1.389       .  A
C469        C481   1.425       .  A
C469        C477   1.386       .  A
C470        C484   1.425       .  A
C470        C478   1.385       .  A
C471        C479   1.385       .  A
C471        C482   1.422       .  A
C472        C480   1.388       .  A
C472        C483   1.428       .  A
C473        C474   1.367       .  A
C473        H485   1.082       .  S
C474        H486   1.082       .  S
C475        C476   1.366       .  A
C475        H487   1.082       .  S
C476        H488   1.082       .  S
C477        H489   1.079       .  S
C478        H490   1.079       .  S
C479        H491   1.081       .  S
C480        H492   1.080       .  S
C481        C509   1.506       .  S
C484        C498   1.510       .  S
O495        C498   1.268       .  A
O495       Cd500   2.503       .  S
C496        C552   1.479       .  S
C496        O505   1.263       .  A
C496        O501   1.267       .  A
O497        C503   1.270       .  A
O497       Cd500   2.506       .  S
C498        O506   1.266       .  A
C499        C532   1.479       .  S
C499        O504   1.261       .  A
C499        O502   1.267       .  A
Cd500       O507   2.483       .  S
Cd500       O506   2.496       .  S
Cd500       O505   2.425       .  S
Cd500       O501   2.498       .  S
Cd500       O504   2.423       .  S
Cd500       O502   2.532       .  S
C503        O507   1.264       .  A
O508        C511   1.267       .  A
O508       Cd513   2.515       .  S
C509        O518   1.264       .  A
C509        O514   1.269       .  A
O510        C516   1.269       .  A
O510       Cd513   2.521       .  S
C511        C541   1.483       .  S
C511        O519   1.263       .  A
C512        O517   1.270       .  A
C512        O515   1.265       .  A
Cd513       O520   2.441       .  S
Cd513       O519   2.439       .  S
Cd513       O518   2.479       .  S
Cd513       O514   2.508       .  S
Cd513       O517   2.512       .  S
Cd513       O515   2.506       .  S
C516        C521   1.486       .  S
C516        O520   1.262       .  A
C521        C522   1.415       .  A
C521        C526   1.407       .  A
C522        C523   1.400       .  A
C522       Br538   1.922       .  S
C523        C524   1.401       .  A
C523        H527   1.084       .  S
C524        C525   1.406       .  A
C524        C528   1.481       .  S
C525        C526   1.404       .  A
C525       Br537   1.916       .  S
C526        H529   1.083       .  S
C528        C530   1.400       .  A
C528        C534   1.409       .  A
C530        C531   1.396       .  A
C530        H535   1.084       .  S
C531        C532   1.409       .  A
C531       Br539   1.920       .  S
C532        C533   1.407       .  A
C533        C534   1.407       .  A
C533        H536   1.083       .  S
C534       Br540   1.917       .  S
C541        C542   1.416       .  A
C541        C546   1.405       .  A
C542        C543   1.404       .  A
C542       Br558   1.918       .  S
C543        C544   1.401       .  A
C543        H547   1.083       .  S
C544        C545   1.405       .  A
C544        C748   1.476       .  S
C545        C546   1.395       .  A
C545       Br757   1.921       .  S
C546        H549   1.083       .  S
C548        C550   1.401   1_556  A
C548        C554   1.407       .  A
C548        C744   1.475       .  S
C550        C551   1.402       .  A
C550        H555   1.084       .  S
C551        C552   1.414       .  A
C551       Br559   1.918       .  S
C552        C553   1.405       .  A
C553        C554   1.395   1_554  A
C553        H556   1.084       .  S
C554       Br760   1.920       .  S
Br557       C745   1.921   1_554  S
Br560       C754   1.920       .  S
C561        C562   1.419       .  A
C561        C566   1.408       .  A
C562        C563   1.407       .  A
C562       Br578   1.919       .  S
C563        C564   1.402       .  A
C563        H567   1.082       .  S
C564        C565   1.404       .  A
C564        C568   1.480       .  S
C565        C566   1.395       .  A
C565       Br577   1.920       .  S
C566        H569   1.083       .  S
C568        C570   1.402       .  A
C568        C574   1.406       .  A
C570        C571   1.401       .  A
C570        H575   1.083       .  S
C571        C572   1.414       .  A
C571       Br579   1.921       .  S
C572        C573   1.406       .  A
C573        C574   1.400       .  A
C573        H576   1.083       .  S
C574       Br580   1.917       .  S
C581        C582   1.420       .  A
C581        C586   1.408       .  A
C582        C583   1.407       .  A
C582       Br598   1.919       .  S
C583        C584   1.402       .  A
C583        H787   1.083       .  S
C584        C585   1.405       .  A
C584        C788   1.480       .  S
C585        C586   1.395       .  A
C585       Br597   1.921   1_554  S
C586        H589   1.083       .  S
H587        C783   1.083       .  S
C588        C590   1.399       .  A
C588        C594   1.407       .  A
C588        C784   1.480       .  S
C590        C591   1.396       .  A
C590        H595   1.084       .  S
C591        C592   1.415       .  A
C591       Br599   1.923       .  S
C592        C593   1.408       .  A
C593        C594   1.405       .  A
C593        H596   1.083       .  S
C594       Br600   1.916       .  S
N601        H633   1.039       .  S
N601       C1406   1.364       .  A
N601        C605   1.362       .  A
N602        C610   1.360   1_554  A
N603        H634   1.040       .  S
N603        C608   1.360       .  A
N603       C1407   1.360   1_455  A
N604        C612   1.358   1_554  A
C605        C613   1.387       .  A
C605        C621   1.426       .  A
C606       N1401   1.364       .  A
C606        C622   1.428       .  A
C606        C614   1.388       .  A
C607       N1403   1.360       .  A
C607        C615   1.387       .  A
C607        C624   1.422       .  A
C608        C623   1.422       .  A
C608        C616   1.388       .  A
C609        C621   1.426       .  A
C609        C617   1.388       .  A
C610        C624   1.426       .  A
C610        C618   1.385       .  A
C611        C619   1.389       .  A
C611        C622   1.429       .  A
C612        C620   1.386       .  A
C612        C623   1.425       .  A
C613       C1414   1.365       .  A
C613        H625   1.082       .  S
C614       C1413   1.365   1_455  A
C614        H626   1.081       .  S
C615       C1416   1.367       .  A
C615        H627   1.082       .  S
C616       C1415   1.367   1_455  A
C616        H628   1.082       .  S
C617        H629   1.080       .  S
C618        H630   1.080       .  S
C619        H631   1.079       .  S
C620        H632   1.080       .  S
C621        C703   1.505       .  S
C622        C643   1.510       .  S
C623        C656   1.503       .  S
C624        C712   1.508       .  S
O635        C638   1.264       .  A
O635       Cd640   2.523       .  S
C636        C683   1.503       .  S
C636        O645   1.262       .  A
C636        O641   1.270       .  A
O637        C643   1.269       .  A
O637       Cd640   2.502       .  S
C638        C781   1.494       .  S
C638        O646   1.263       .  A
C639        C772   1.482       .  S
C639        O644   1.266       .  A
C639        O642   1.261       .  A
Cd640       O647   2.493       .  S
Cd640       O646   2.459       .  S
Cd640       O645   2.478       .  S
Cd640       O641   2.502       .  S
Cd640       O644   2.497       .  S
Cd640       O642   2.452       .  S
C643        O647   1.264       .  A
O648        C651   1.262       .  A
O648       Cd653   2.417       .  S
C649        C682   1.502       .  S
C649        O658   1.266       .  A
C649        O654   1.268       .  A
O650        C656   1.271       .  A
O650       Cd653   2.496       .  S
C651        C792   1.484       .  S
C651        O659   1.269       .  A
C652        C761   1.492       .  S
C652        O657   1.269       .  A
C652        O655   1.263       .  A
Cd653       O660   2.486       .  S
Cd653       O659   2.511       .  S
Cd653       O658   2.496       .  S
Cd653       O654   2.495       .  S
Cd653       O657   2.533       .  S
Cd653       O655   2.425       .  S
C656        O660   1.264       .  A
N661        H693   1.037       .  S
N661        C666   1.361       .  A
N661        C665   1.361       .  A
N662        C669   1.358       .  A
N663        H694   1.043       .  S
N663        C668   1.359       .  A
N663        C667   1.362       .  A
N664        C671   1.357       .  A
C665        C673   1.387       .  A
C665        C681   1.425       .  A
C666        C682   1.423       .  A
C666        C674   1.387       .  A
C667        C675   1.387       .  A
C667        C684   1.424       .  A
C668        C683   1.424       .  A
C668        C676   1.389       .  A
C669        C681   1.425       .  A
C669        C677   1.387       .  A
C670        C684   1.425       .  A
C670        C678   1.385       .  A
C671        C679   1.385       .  A
C671        C682   1.422       .  A
C672        C680   1.388       .  A
C672        C683   1.428       .  A
C673        C674   1.367       .  A
C673        H685   1.082       .  S
C674        H686   1.082       .  S
C675        C676   1.365       .  A
C675        H687   1.082       .  S
C676        H688   1.082       .  S
C677        H689   1.079       .  S
C678        H690   1.079       .  S
C679        H691   1.081       .  S
C680        H692   1.080       .  S
C681        C709   1.506       .  S
C684        C698   1.510       .  S
O695        C698   1.268       .  A
O695       Cd700   2.502       .  S
C696        C752   1.479       .  S
C696        O705   1.263       .  A
C696        O701   1.267       .  A
O697        C703   1.270       .  A
O697       Cd700   2.504       .  S
C698        O706   1.266       .  A
C699        C732   1.479       .  S
C699        O704   1.261       .  A
C699        O702   1.267       .  A
Cd700       O707   2.482       .  S
Cd700       O706   2.497       .  S
Cd700       O705   2.426       .  S
Cd700       O701   2.497       .  S
Cd700       O704   2.423       .  S
Cd700       O702   2.532       .  S
C703        O707   1.264       .  A
O708        C711   1.267       .  A
O708       Cd713   2.514       .  S
C709        O718   1.264       .  A
C709        O714   1.269       .  A
O710        C716   1.269       .  A
O710       Cd713   2.521       .  S
C711        C741   1.483       .  S
C711        O719   1.263       .  A
C712        O717   1.270       .  A
C712        O715   1.265       .  A
Cd713       O720   2.440       .  S
Cd713       O719   2.439       .  S
Cd713       O718   2.478       .  S
Cd713       O714   2.507       .  S
Cd713       O717   2.511       .  S
Cd713       O715   2.504       .  S
C716        C721   1.486       .  S
C716        O720   1.262       .  A
C721        C722   1.416       .  A
C721        C726   1.407       .  A
C722        C723   1.400       .  A
C722       Br738   1.922       .  S
C723        C724   1.401       .  A
C723        H727   1.084       .  S
C724        C725   1.406       .  A
C724        C728   1.481       .  S
C725        C726   1.404       .  A
C725       Br737   1.916       .  S
C726        H729   1.083       .  S
C728        C730   1.400       .  A
C728        C734   1.409       .  A
C730        C731   1.396       .  A
C730        H735   1.084       .  S
C731        C732   1.409       .  A
C731       Br739   1.920       .  S
C732        C733   1.407       .  A
C733        C734   1.407       .  A
C733        H736   1.083       .  S
C734       Br740   1.918       .  S
C741        C742   1.416       .  A
C741        C746   1.405       .  A
C742        C743   1.404       .  A
C742       Br758   1.918       .  S
C743        C744   1.401       .  A
C743        H747   1.083       .  S
C744        C745   1.405       .  A
C745        C746   1.395       .  A
C746        H749   1.084       .  S
C748        C750   1.401       .  A
C748        C754   1.407       .  A
C750        C751   1.402       .  A
C750        H755   1.084       .  S
C751        C752   1.414       .  A
C751       Br759   1.917       .  S
C752        C753   1.405       .  A
C753        C754   1.395       .  A
C753        H756   1.084       .  S
C761        C762   1.419       .  A
C761        C766   1.408       .  A
C762        C763   1.407       .  A
C762       Br778   1.919       .  S
C763        C764   1.402       .  A
C763        H767   1.082       .  S
C764        C765   1.404       .  A
C764        C768   1.480       .  S
C765        C766   1.395       .  A
C765       Br777   1.920       .  S
C766        H769   1.083       .  S
C768        C770   1.402       .  A
C768        C774   1.406       .  A
C770        C771   1.401       .  A
C770        H775   1.083       .  S
C771        C772   1.414       .  A
C771       Br779   1.921       .  S
C772        C773   1.406       .  A
C773        C774   1.400       .  A
C773        H776   1.083       .  S
C774       Br780   1.918       .  S
C781        C782   1.420       .  A
C781        C786   1.408       .  A
C782        C783   1.407       .  A
C782       Br798   1.919       .  S
C783        C784   1.402       .  A
C784        C785   1.405       .  A
C785        C786   1.395       .  A
C785       Br797   1.921       .  S
C786        H789   1.083       .  S
C788        C790   1.399       .  A
C788        C794   1.407   1_554  A
C790        C791   1.396   1_554  A
C790        H795   1.084       .  S
C791        C792   1.415       .  A
C791       Br799   1.923   1_556  S
C792        C793   1.408       .  A
C793        C794   1.405       .  A
C793        H796   1.083       .  S
C794       Br800   1.916       .  S
N801        H833   1.038       .  S
N801        C805   1.363   1_455  A
N802       C1409   1.358   1_545  A
N802        C810   1.360       .  A
N803        H834   1.040       .  S
N803        C808   1.360       .  A
N804       C1411   1.358   1_545  A
N804        C812   1.358       .  A
C805        C813   1.387       .  A
C805        C821   1.427       .  A
C806        C822   1.427       .  A
C806        C814   1.387       .  A
C807        C815   1.387       .  A
C807        C824   1.420       .  A
C808        C823   1.421       .  A
C808        C816   1.387       .  A
C809       N1402   1.359       .  A
C809        C821   1.428       .  A
C809        C817   1.388       .  A
C810        C824   1.424       .  A
C810        C818   1.384       .  A
C811       N1404   1.358       .  A
C811        C819   1.388       .  A
C811        C822   1.428       .  A
C812        C820   1.385       .  A
C812        C823   1.424       .  A
C813        H825   1.082       .  S
C814        H826   1.081       .  S
C815        H827   1.082       .  S
C816        H828   1.082       .  S
C817       C1418   1.372   1_554  A
C817        H829   1.080       .  S
C818       C1417   1.371   1_545  A
C818        H830   1.081       .  S
C819       C1420   1.371   1_554  A
C819        H831   1.080       .  S
C820       C1419   1.371   1_545  A
C820        H832   1.081       .  S
C821        C903   1.508       .  S
C822        C843   1.508       .  S
C823        C856   1.503       .  S
C824        C912   1.506       .  S
O835        C838   1.263       .  A
O835       Cd840   2.507       .  S
C836        C883   1.500       .  S
C836        O845   1.262       .  A
C836        O841   1.269       .  A
O837        C843   1.269       .  A
O837       Cd840   2.502       .  S
C838        C981   1.493       .  S
C838        O846   1.264       .  A
C839        C972   1.490       .  S
C839        O844   1.266       .  A
C839        O842   1.262       .  A
Cd840       O847   2.497       .  S
Cd840       O846   2.461       .  S
Cd840       O845   2.473       .  S
Cd840       O841   2.496       .  S
Cd840       O844   2.497       .  S
Cd840       O842   2.463       .  S
C843        O847   1.264       .  A
O848        C851   1.263       .  A
O848       Cd853   2.450       .  S
C849        C882   1.509       .  S
C849        O858   1.265       .  A
C849        O854   1.268       .  A
O850        C856   1.269       .  A
O850       Cd853   2.497       .  S
C851        C992   1.487       .  S
C851        O859   1.269       .  A
C852        C961   1.495       .  S
C852        O857   1.269       .  A
C852        O855   1.264       .  A
Cd853       O860   2.498       .  S
Cd853       O859   2.509       .  S
Cd853       O858   2.509       .  S
Cd853       O854   2.511       .  S
Cd853       O857   2.543       .  S
Cd853       O855   2.445       .  S
C856        O860   1.263       .  A
N861        H893   1.041       .  S
N861        C866   1.362       .  A
N861        C865   1.361       .  A
N862        C869   1.358       .  A
N862       C1270   1.359   1_545  A
N863        H894   1.041       .  S
N863        C868   1.360       .  A
N863        C867   1.361       .  A
N864        C871   1.360       .  A
N864       C1272   1.359   1_545  A
C865        C873   1.388       .  A
C865        C881   1.426       .  A
C866        C882   1.426       .  A
C866        C874   1.387       .  A
C867        C875   1.388       .  A
C867        C884   1.424       .  A
C868        C883   1.423       .  A
C868        C876   1.388       .  A
C869        C881   1.427       .  A
C869        C877   1.387       .  A
C870       N1262   1.358       .  A
C870        C884   1.424       .  A
C870        C878   1.386       .  A
C871        C879   1.386       .  A
C871        C882   1.426       .  A
C872       N1264   1.357       .  A
C872        C880   1.388       .  A
C872        C883   1.425       .  A
C873        C874   1.368       .  A
C873        H885   1.082       .  S
C874        H886   1.082       .  S
C875        C876   1.366       .  A
C875        H887   1.082       .  S
C876        H888   1.082       .  S
C877       C1278   1.366   1_545  A
C877        H889   1.079       .  S
C878       C1277   1.366       .  A
C878        H890   1.080       .  S
C879       C1280   1.371   1_545  A
C879        H891   1.081       .  S
C880       C1279   1.370       .  A
C880        H892   1.080       .  S
C881        C909   1.506       .  S
C884        C898   1.504       .  S
O895        C898   1.269       .  A
O895       Cd900   2.496       .  S
C896        C952   1.480       .  S
C896        O905   1.262       .  A
C896        O901   1.266       .  A
O897        C903   1.271       .  A
O897       Cd900   2.514       .  S
C898        O906   1.266       .  A
C899        C932   1.485       .  S
C899        O904   1.261       .  A
C899        O902   1.267       .  A
Cd900       O907   2.494       .  S
Cd900       O906   2.472       .  S
Cd900       O905   2.414       .  S
Cd900       O901   2.498       .  S
Cd900       O904   2.459       .  S
Cd900       O902   2.533       .  S
C903        O907   1.264       .  A
O908        C911   1.266       .  A
O908       Cd913   2.496       .  S
C909        O918   1.264       .  A
C909        O914   1.269       .  A
O910        C916   1.269       .  A
O910       Cd913   2.529       .  S
C911        C941   1.486       .  S
C911        O919   1.263       .  A
C912        O917   1.270       .  A
C912        O915   1.265       .  A
Cd913       O920   2.437       .  S
Cd913       O919   2.453       .  S
Cd913       O918   2.469       .  S
Cd913       O914   2.508       .  S
Cd913       O917   2.507       .  S
Cd913       O915   2.503       .  S
C916        C921   1.485       .  S
C916        O920   1.261       .  A
C921        C922   1.414       .  A
C921        C926   1.407       .  A
C922        C923   1.398       .  A
C922       Br938   1.921       .  S
C923        C924   1.401       .  A
C923        H927   1.084       .  S
C924        C925   1.408       .  A
C924        C928   1.484       .  S
C925        C926   1.405       .  A
C925       Br937   1.916       .  S
C926        H929   1.083       .  S
C928        C930   1.402       .  A
C928        C934   1.408       .  A
C930        C931   1.401       .  A
C930        H935   1.084       .  S
C931        C932   1.413       .  A
C931       Br939   1.920       .  S
C932        C933   1.407       .  A
C933        C934   1.405       .  A
C933        H936   1.083       .  S
C934       Br940   1.919       .  S
C941        C942   1.417       .  A
C941        C946   1.407       .  A
C942        C943   1.402       .  A
C942       Br958   1.919       .  S
C943        C944   1.398       .  A
C943        H947   1.083       .  S
C944        C945   1.405       .  A
C944       C1148   1.474       .  S
C945        C946   1.397       .  A
C945      Br1157   1.922       .  S
C946        H949   1.083       .  S
C948        C950   1.401       .  A
C948        C954   1.405   1_554  A
C948       C1144   1.474   1_554  S
C950        C951   1.402       .  A
C950        H955   1.084       .  S
C951        C952   1.416       .  A
C951       Br959   1.920       .  S
C952        C953   1.406       .  A
C953        C954   1.393   1_554  A
C953        H956   1.084       .  S
C954      Br1160   1.920       .  S
Br957      C1145   1.922   1_554  S
Br960      C1154   1.920       .  S
C961        C962   1.419       .  A
C961        C966   1.408       .  A
C962        C963   1.409       .  A
C962       Br978   1.919       .  S
C963        C964   1.402       .  A
C963        H967   1.081       .  S
C964        C965   1.404       .  A
C964        C968   1.483       .  S
C965        C966   1.396       .  A
C965       Br977   1.921       .  S
C966        H969   1.083       .  S
C968        C970   1.401       .  A
C968        C974   1.406       .  A
C970        C971   1.401       .  A
C970        H975   1.084       .  S
C971        C972   1.418       .  A
C971       Br979   1.922       .  S
C972        C973   1.408       .  A
C973        C974   1.402       .  A
C973        H976   1.083       .  S
C974       Br980   1.917       .  S
C981        C982   1.420       .  A
C981        C986   1.407       .  A
C982        C983   1.408       .  A
C982       Br998   1.921       .  S
C983        C984   1.403       .  A
C983       H1187   1.083       .  S
C984        C985   1.405       .  A
C984       C1188   1.483       .  S
C985        C986   1.396       .  A
C985       Br997   1.919   1_554  S
C986        H989   1.083       .  S
H987       C1183   1.083       .  S
C988        C990   1.402       .  A
C988        C994   1.407       .  A
C988       C1184   1.484       .  S
C990        C991   1.401       .  A
C990        H995   1.084       .  S
C991        C992   1.415       .  A
C991       Br999   1.922       .  S
C992        C993   1.406       .  A
C993        C994   1.403       .  A
C993        H996   1.083       .  S
C994      Br1000   1.914       .  S
N1001      H1033   1.038       .  S
N1001      C1005   1.363   1_455  A
N1002      C1209   1.358   1_545  A
N1002      C1010   1.359   1_554  A
N1003      H1034   1.040       .  S
N1003      C1008   1.359       .  A
N1004      C1211   1.358   1_545  A
N1004      C1012   1.358   1_554  A
C1005      C1013   1.387       .  A
C1005      C1021   1.427       .  A
C1006      C1022   1.428       .  A
C1006      C1014   1.388       .  A
C1007      C1015   1.387       .  A
C1007      C1024   1.420       .  A
C1008      C1023   1.420       .  A
C1008      C1016   1.387       .  A
C1009      N1202   1.359       .  A
C1009      C1021   1.428       .  A
C1009      C1017   1.388       .  A
C1010      C1024   1.423       .  A
C1010      C1018   1.384       .  A
C1011      N1204   1.358       .  A
C1011      C1019   1.388       .  A
C1011      C1022   1.428       .  A
C1012      C1020   1.385       .  A
C1012      C1023   1.424       .  A
C1013      H1025   1.082       .  S
C1014      H1026   1.081       .  S
C1015      H1027   1.082       .  S
C1016      H1028   1.082       .  S
C1017      C1218   1.372       .  A
C1017      H1029   1.080       .  S
C1018      C1217   1.371   1_546  A
C1018      H1030   1.081       .  S
C1019      C1220   1.371       .  A
C1019      H1031   1.080       .  S
C1020      C1219   1.371   1_546  A
C1020      H1032   1.081       .  S
C1021      C1103   1.508       .  S
C1022      C1043   1.508       .  S
C1023      C1056   1.503       .  S
C1024      C1112   1.506       .  S
O1035      C1038   1.263       .  A
O1035     Cd1040   2.508       .  S
C1036      C1083   1.500       .  S
C1036      O1045   1.262       .  A
C1036      O1041   1.269       .  A
O1037      C1043   1.269       .  A
O1037     Cd1040   2.502       .  S
C1038      C1181   1.493       .  S
C1038      O1046   1.264       .  A
C1039      C1172   1.490       .  S
C1039      O1044   1.266       .  A
C1039      O1042   1.262       .  A
Cd1040     O1047   2.498       .  S
Cd1040     O1046   2.462       .  S
Cd1040     O1045   2.474       .  S
Cd1040     O1041   2.495       .  S
Cd1040     O1044   2.497       .  S
Cd1040     O1042   2.465       .  S
C1043      O1047   1.264       .  A
O1048      C1051   1.263       .  A
O1048     Cd1053   2.450       .  S
C1049      C1082   1.508       .  S
C1049      O1058   1.265       .  A
C1049      O1054   1.268       .  A
O1050      C1056   1.270       .  A
O1050     Cd1053   2.495       .  S
C1051      C1192   1.486       .  S
C1051      O1059   1.269       .  A
C1052      C1161   1.495       .  S
C1052      O1057   1.269       .  A
C1052      O1055   1.264       .  A
Cd1053     O1060   2.497       .  S
Cd1053     O1059   2.507       .  S
Cd1053     O1058   2.508       .  S
Cd1053     O1054   2.509       .  S
Cd1053     O1057   2.541       .  S
Cd1053     O1055   2.443       .  S
C1056      O1060   1.263       .  A
N1061      H1093   1.041       .  S
N1061      C1066   1.362       .  A
N1061      C1065   1.361       .  A
N1062      C1069   1.358       .  A
N1062      C1470   1.359   1_545  A
N1063      H1094   1.041       .  S
N1063      C1068   1.360       .  A
N1063      C1067   1.361       .  A
N1064      C1071   1.359       .  A
N1064      C1472   1.359   1_545  A
C1065      C1073   1.388       .  A
C1065      C1081   1.427       .  A
C1066      C1082   1.426       .  A
C1066      C1074   1.387       .  A
C1067      C1075   1.388       .  A
C1067      C1084   1.424       .  A
C1068      C1083   1.423       .  A
C1068      C1076   1.388       .  A
C1069      C1081   1.427       .  A
C1069      C1077   1.387       .  A
C1070      N1462   1.358       .  A
C1070      C1084   1.424       .  A
C1070      C1078   1.386       .  A
C1071      C1079   1.386       .  A
C1071      C1082   1.426       .  A
C1072      N1464   1.357       .  A
C1072      C1080   1.388       .  A
C1072      C1083   1.425       .  A
C1073      C1074   1.368       .  A
C1073      H1085   1.082       .  S
C1074      H1086   1.082       .  S
C1075      C1076   1.366       .  A
C1075      H1087   1.082       .  S
C1076      H1088   1.082       .  S
C1077      C1478   1.366   1_545  A
C1077      H1089   1.079       .  S
C1078      C1477   1.366       .  A
C1078      H1090   1.080       .  S
C1079      C1480   1.371   1_545  A
C1079      H1091   1.081       .  S
C1080      C1479   1.370       .  A
C1080      H1092   1.080       .  S
C1081      C1109   1.506       .  S
C1084      C1098   1.504       .  S
O1095      C1098   1.269       .  A
O1095     Cd1100   2.495       .  S
C1096      C1152   1.481       .  S
C1096      O1105   1.262       .  A
C1096      O1101   1.266       .  A
O1097      C1103   1.271       .  A
O1097     Cd1100   2.514       .  S
C1098      O1106   1.266       .  A
C1099      C1132   1.484       .  S
C1099      O1104   1.261       .  A
C1099      O1102   1.267       .  A
Cd1100     O1107   2.492       .  S
Cd1100     O1106   2.473       .  S
Cd1100     O1105   2.413       .  S
Cd1100     O1101   2.498       .  S
Cd1100     O1104   2.458       .  S
Cd1100     O1102   2.531       .  S
C1103      O1107   1.264       .  A
O1108      C1111   1.266       .  A
O1108     Cd1113   2.496       .  S
C1109      O1118   1.264       .  A
C1109      O1114   1.269       .  A
O1110      C1116   1.269       .  A
O1110     Cd1113   2.529       .  S
C1111      C1141   1.485       .  S
C1111      O1119   1.263       .  A
C1112      O1117   1.270       .  A
C1112      O1115   1.265       .  A
Cd1113     O1120   2.436       .  S
Cd1113     O1119   2.451       .  S
Cd1113     O1118   2.470       .  S
Cd1113     O1114   2.509       .  S
Cd1113     O1117   2.506       .  S
Cd1113     O1115   2.502       .  S
C1116      C1121   1.485       .  S
C1116      O1120   1.261       .  A
C1121      C1122   1.414       .  A
C1121      C1126   1.407       .  A
C1122      C1123   1.398       .  A
C1122     Br1138   1.921       .  S
C1123      C1124   1.400       .  A
C1123      H1127   1.084       .  S
C1124      C1125   1.408       .  A
C1124      C1128   1.484       .  S
C1125      C1126   1.405       .  A
C1125     Br1137   1.916       .  S
C1126      H1129   1.083       .  S
C1128      C1130   1.402       .  A
C1128      C1134   1.408       .  A
C1130      C1131   1.401       .  A
C1130      H1135   1.084       .  S
C1131      C1132   1.412       .  A
C1131     Br1139   1.920       .  S
C1132      C1133   1.407       .  A
C1133      C1134   1.405       .  A
C1133      H1136   1.083       .  S
C1134     Br1140   1.919       .  S
C1141      C1142   1.417       .  A
C1141      C1146   1.407       .  A
C1142      C1143   1.402       .  A
C1142     Br1158   1.919       .  S
C1143      C1144   1.398       .  A
C1143      H1147   1.083       .  S
C1144      C1145   1.405       .  A
C1145      C1146   1.397       .  A
C1146      H1149   1.083       .  S
C1148      C1150   1.401       .  A
C1148      C1154   1.405       .  A
C1150      C1151   1.403       .  A
C1150      H1155   1.084       .  S
C1151      C1152   1.416       .  A
C1151     Br1159   1.920       .  S
C1152      C1153   1.406       .  A
C1153      C1154   1.393       .  A
C1153      H1156   1.084       .  S
C1161      C1162   1.419       .  A
C1161      C1166   1.408       .  A
C1162      C1163   1.408       .  A
C1162     Br1178   1.919       .  S
C1163      C1164   1.402       .  A
C1163      H1167   1.081       .  S
C1164      C1165   1.404       .  A
C1164      C1168   1.482       .  S
C1165      C1166   1.396       .  A
C1165     Br1177   1.921       .  S
C1166      H1169   1.083       .  S
C1168      C1170   1.401       .  A
C1168      C1174   1.406       .  A
C1170      C1171   1.401       .  A
C1170      H1175   1.084       .  S
C1171      C1172   1.418       .  A
C1171     Br1179   1.922       .  S
C1172      C1173   1.409       .  A
C1173      C1174   1.401       .  A
C1173      H1176   1.083       .  S
C1174     Br1180   1.917       .  S
C1181      C1182   1.420       .  A
C1181      C1186   1.407       .  A
C1182      C1183   1.408       .  A
C1182     Br1198   1.921       .  S
C1183      C1184   1.403       .  A
C1184      C1185   1.405       .  A
C1185      C1186   1.396       .  A
C1185     Br1197   1.919       .  S
C1186      H1189   1.083       .  S
C1188      C1190   1.401       .  A
C1188      C1194   1.407   1_554  A
C1190      C1191   1.401   1_554  A
C1190      H1195   1.084       .  S
C1191      C1192   1.415       .  A
C1191     Br1199   1.922   1_556  S
C1192      C1193   1.406       .  A
C1193      C1194   1.403       .  A
C1193      H1196   1.083       .  S
C1194     Br1200   1.915       .  S
N1201      H1233   1.039       .  S
N1201      C1205   1.362   1_455  A
N1202      C1210   1.360       .  A
N1203      H1234   1.040       .  S
N1203      C1208   1.360       .  A
N1204      C1212   1.358       .  A
C1205      C1213   1.387       .  A
C1205      C1221   1.426       .  A
C1206      C1222   1.428       .  A
C1206      C1214   1.388       .  A
C1207      C1215   1.387       .  A
C1207      C1224   1.422       .  A
C1208      C1223   1.423       .  A
C1208      C1216   1.388       .  A
C1209      C1221   1.426       .  A
C1209      C1217   1.388       .  A
C1210      C1224   1.426       .  A
C1210      C1218   1.385       .  A
C1211      C1219   1.389       .  A
C1211      C1222   1.429       .  A
C1212      C1220   1.386       .  A
C1212      C1223   1.425       .  A
C1213      H1225   1.082       .  S
C1214      H1226   1.081       .  S
C1215      H1227   1.082       .  S
C1216      H1228   1.082       .  S
C1217      H1229   1.080       .  S
C1218      H1230   1.080       .  S
C1219      H1231   1.079       .  S
C1220      H1232   1.080       .  S
C1221      C1303   1.505       .  S
C1222      C1243   1.510       .  S
C1223      C1256   1.504       .  S
C1224      C1312   1.508       .  S
O1235      C1238   1.264       .  A
O1235     Cd1240   2.521       .  S
C1236      C1283   1.503       .  S
C1236      O1245   1.262       .  A
C1236      O1241   1.270       .  A
O1237      C1243   1.269       .  A
O1237     Cd1240   2.501       .  S
C1238      C1381   1.494       .  S
C1238      O1246   1.263       .  A
C1239      C1372   1.482       .  S
C1239      O1244   1.266       .  A
C1239      O1242   1.261       .  A
Cd1240     O1247   2.492       .  S
Cd1240     O1246   2.460       .  S
Cd1240     O1245   2.478       .  S
Cd1240     O1241   2.501       .  S
Cd1240     O1244   2.498       .  S
Cd1240     O1242   2.451       .  S
C1243      O1247   1.264       .  A
O1248      C1251   1.262       .  A
O1248     Cd1253   2.416       .  S
C1249      C1282   1.502       .  S
C1249      O1258   1.266       .  A
C1249      O1254   1.268       .  A
O1250      C1256   1.271       .  A
O1250     Cd1253   2.497       .  S
C1251      C1392   1.484       .  S
C1251      O1259   1.269       .  A
C1252      C1361   1.492       .  S
C1252      O1257   1.269       .  A
C1252      O1255   1.263       .  A
Cd1253     O1260   2.488       .  S
Cd1253     O1259   2.512       .  S
Cd1253     O1258   2.496       .  S
Cd1253     O1254   2.494       .  S
Cd1253     O1257   2.532       .  S
Cd1253     O1255   2.426       .  S
C1256      O1260   1.264       .  A
N1261      H1293   1.037       .  S
N1261      C1266   1.361       .  A
N1261      C1265   1.361       .  A
N1262      C1269   1.358       .  A
N1263      H1294   1.043       .  S
N1263      C1268   1.359       .  A
N1263      C1267   1.362       .  A
N1264      C1271   1.357       .  A
C1265      C1273   1.388       .  A
C1265      C1281   1.425       .  A
C1266      C1282   1.423       .  A
C1266      C1274   1.387       .  A
C1267      C1275   1.387       .  A
C1267      C1284   1.424       .  A
C1268      C1283   1.424       .  A
C1268      C1276   1.389       .  A
C1269      C1281   1.425       .  A
C1269      C1277   1.386       .  A
C1270      C1284   1.424       .  A
C1270      C1278   1.385       .  A
C1271      C1279   1.385       .  A
C1271      C1282   1.422       .  A
C1272      C1280   1.388       .  A
C1272      C1283   1.428       .  A
C1273      C1274   1.367       .  A
C1273      H1285   1.082       .  S
C1274      H1286   1.082       .  S
C1275      C1276   1.366       .  A
C1275      H1287   1.082       .  S
C1276      H1288   1.082       .  S
C1277      H1289   1.079       .  S
C1278      H1290   1.079       .  S
C1279      H1291   1.081       .  S
C1280      H1292   1.080       .  S
C1281      C1309   1.506       .  S
C1284      C1298   1.510       .  S
O1295      C1298   1.268       .  A
O1295     Cd1300   2.503       .  S
C1296      C1352   1.479       .  S
C1296      O1305   1.263       .  A
C1296      O1301   1.267       .  A
O1297      C1303   1.270       .  A
O1297     Cd1300   2.506       .  S
C1298      O1306   1.266       .  A
C1299      C1332   1.479       .  S
C1299      O1304   1.261       .  A
C1299      O1302   1.268       .  A
Cd1300     O1307   2.484       .  S
Cd1300     O1306   2.497       .  S
Cd1300     O1305   2.426       .  S
Cd1300     O1301   2.497       .  S
Cd1300     O1304   2.423       .  S
Cd1300     O1302   2.533       .  S
C1303      O1307   1.264       .  A
O1308      C1311   1.267       .  A
O1308     Cd1313   2.514       .  S
C1309      O1318   1.264       .  A
C1309      O1314   1.269       .  A
O1310      C1316   1.269       .  A
O1310     Cd1313   2.521       .  S
C1311      C1341   1.483       .  S
C1311      O1319   1.263       .  A
C1312      O1317   1.270       .  A
C1312      O1315   1.265       .  A
Cd1313     O1320   2.440       .  S
Cd1313     O1319   2.439       .  S
Cd1313     O1318   2.478       .  S
Cd1313     O1314   2.507       .  S
Cd1313     O1317   2.511       .  S
Cd1313     O1315   2.505       .  S
C1316      C1321   1.485       .  S
C1316      O1320   1.262       .  A
C1321      C1322   1.415       .  A
C1321      C1326   1.407       .  A
C1322      C1323   1.400       .  A
C1322     Br1338   1.922       .  S
C1323      C1324   1.401       .  A
C1323      H1327   1.084       .  S
C1324      C1325   1.406       .  A
C1324      C1328   1.481       .  S
C1325      C1326   1.404       .  A
C1325     Br1337   1.916       .  S
C1326      H1329   1.083       .  S
C1328      C1330   1.400       .  A
C1328      C1334   1.409       .  A
C1330      C1331   1.396       .  A
C1330      H1335   1.084       .  S
C1331      C1332   1.409       .  A
C1331     Br1339   1.920       .  S
C1332      C1333   1.407       .  A
C1333      C1334   1.407       .  A
C1333      H1336   1.083       .  S
C1334     Br1340   1.917       .  S
C1341      C1342   1.416       .  A
C1341      C1346   1.405       .  A
C1342      C1343   1.404       .  A
C1342     Br1358   1.918       .  S
C1343      C1344   1.401       .  A
C1343      H1347   1.083       .  S
C1344      C1345   1.405       .  A
C1344      C1548   1.476       .  S
C1345      C1346   1.395       .  A
C1345     Br1557   1.921       .  S
C1346      H1349   1.083       .  S
C1348      C1350   1.401   1_556  A
C1348      C1354   1.407       .  A
C1348      C1544   1.476       .  S
C1350      C1351   1.402       .  A
C1350      H1355   1.084       .  S
C1351      C1352   1.414       .  A
C1351     Br1359   1.917       .  S
C1352      C1353   1.405       .  A
C1353      C1354   1.395   1_554  A
C1353      H1356   1.084       .  S
C1354     Br1560   1.920       .  S
Br1357     C1545   1.921   1_554  S
Br1360     C1554   1.920       .  S
C1361      C1362   1.419       .  A
C1361      C1366   1.408       .  A
C1362      C1363   1.407       .  A
C1362     Br1378   1.919       .  S
C1363      C1364   1.402       .  A
C1363      H1367   1.082       .  S
C1364      C1365   1.404       .  A
C1364      C1368   1.480       .  S
C1365      C1366   1.395       .  A
C1365     Br1377   1.921       .  S
C1366      H1369   1.083       .  S
C1368      C1370   1.402       .  A
C1368      C1374   1.406       .  A
C1370      C1371   1.401       .  A
C1370      H1375   1.083       .  S
C1371      C1372   1.414       .  A
C1371     Br1379   1.921       .  S
C1372      C1373   1.406       .  A
C1373      C1374   1.400       .  A
C1373      H1376   1.083       .  S
C1374     Br1380   1.918       .  S
C1381      C1382   1.420       .  A
C1381      C1386   1.408       .  A
C1382      C1383   1.407       .  A
C1382     Br1398   1.919       .  S
C1383      C1384   1.402       .  A
C1383      H1587   1.083       .  S
C1384      C1385   1.405       .  A
C1384      C1588   1.480       .  S
C1385      C1386   1.395       .  A
C1385     Br1397   1.921   1_554  S
C1386      H1389   1.083       .  S
H1387      C1583   1.083       .  S
C1388      C1390   1.399       .  A
C1388      C1394   1.407       .  A
C1388      C1584   1.480       .  S
C1390      C1391   1.396       .  A
C1390      H1395   1.084       .  S
C1391      C1392   1.415       .  A
C1391     Br1399   1.923       .  S
C1392      C1393   1.408       .  A
C1393      C1394   1.405       .  A
C1393      H1396   1.083       .  S
C1394     Br1400   1.916       .  S
N1401      H1433   1.039       .  S
N1401      C1405   1.362   1_455  A
N1402      C1410   1.360   1_554  A
N1403      H1434   1.040       .  S
N1403      C1408   1.360       .  A
N1404      C1412   1.358   1_554  A
C1405      C1413   1.387       .  A
C1405      C1421   1.426       .  A
C1406      C1422   1.428       .  A
C1406      C1414   1.388       .  A
C1407      C1415   1.387       .  A
C1407      C1424   1.422       .  A
C1408      C1423   1.422       .  A
C1408      C1416   1.388       .  A
C1409      C1421   1.426       .  A
C1409      C1417   1.388       .  A
C1410      C1424   1.426       .  A
C1410      C1418   1.385       .  A
C1411      C1419   1.389       .  A
C1411      C1422   1.429       .  A
C1412      C1420   1.386       .  A
C1412      C1423   1.425       .  A
C1413      H1425   1.082       .  S
C1414      H1426   1.081       .  S
C1415      H1427   1.082       .  S
C1416      H1428   1.082       .  S
C1417      H1429   1.080       .  S
C1418      H1430   1.080       .  S
C1419      H1431   1.079       .  S
C1420      H1432   1.080       .  S
C1421      C1503   1.505       .  S
C1422      C1443   1.510       .  S
C1423      C1456   1.503       .  S
C1424      C1512   1.508       .  S
O1435      C1438   1.264       .  A
O1435     Cd1440   2.524       .  S
C1436      C1483   1.503       .  S
C1436      O1445   1.262       .  A
C1436      O1441   1.270       .  A
O1437      C1443   1.269       .  A
O1437     Cd1440   2.501       .  S
C1438      C1581   1.494       .  S
C1438      O1446   1.263       .  A
C1439      C1572   1.482       .  S
C1439      O1444   1.266       .  A
C1439      O1442   1.261       .  A
Cd1440     O1447   2.493       .  S
Cd1440     O1446   2.457       .  S
Cd1440     O1445   2.478       .  S
Cd1440     O1441   2.501       .  S
Cd1440     O1444   2.497       .  S
Cd1440     O1442   2.453       .  S
C1443      O1447   1.264       .  A
O1448      C1451   1.262       .  A
O1448     Cd1453   2.417       .  S
C1449      C1482   1.502       .  S
C1449      O1458   1.266       .  A
C1449      O1454   1.268       .  A
O1450      C1456   1.271       .  A
O1450     Cd1453   2.496       .  S
C1451      C1592   1.484       .  S
C1451      O1459   1.269       .  A
C1452      C1561   1.492       .  S
C1452      O1457   1.269       .  A
C1452      O1455   1.263       .  A
Cd1453     O1460   2.486       .  S
Cd1453     O1459   2.511       .  S
Cd1453     O1458   2.496       .  S
Cd1453     O1454   2.495       .  S
Cd1453     O1457   2.532       .  S
Cd1453     O1455   2.425       .  S
C1456      O1460   1.264       .  A
N1461      H1493   1.037       .  S
N1461      C1466   1.361       .  A
N1461      C1465   1.361       .  A
N1462      C1469   1.358       .  A
N1463      H1494   1.042       .  S
N1463      C1468   1.359       .  A
N1463      C1467   1.362       .  A
N1464      C1471   1.357       .  A
C1465      C1473   1.388       .  A
C1465      C1481   1.425       .  A
C1466      C1482   1.423       .  A
C1466      C1474   1.387       .  A
C1467      C1475   1.387       .  A
C1467      C1484   1.424       .  A
C1468      C1483   1.424       .  A
C1468      C1476   1.389       .  A
C1469      C1481   1.425       .  A
C1469      C1477   1.387       .  A
C1470      C1484   1.424       .  A
C1470      C1478   1.385       .  A
C1471      C1479   1.385       .  A
C1471      C1482   1.422       .  A
C1472      C1480   1.388       .  A
C1472      C1483   1.428       .  A
C1473      C1474   1.367       .  A
C1473      H1485   1.082       .  S
C1474      H1486   1.082       .  S
C1475      C1476   1.366       .  A
C1475      H1487   1.082       .  S
C1476      H1488   1.082       .  S
C1477      H1489   1.079       .  S
C1478      H1490   1.079       .  S
C1479      H1491   1.081       .  S
C1480      H1492   1.080       .  S
C1481      C1509   1.506       .  S
C1484      C1498   1.509       .  S
O1495      C1498   1.268       .  A
O1495     Cd1500   2.502       .  S
C1496      C1552   1.479       .  S
C1496      O1505   1.263       .  A
C1496      O1501   1.267       .  A
O1497      C1503   1.270       .  A
O1497     Cd1500   2.506       .  S
C1498      O1506   1.266       .  A
C1499      C1532   1.479       .  S
C1499      O1504   1.261       .  A
C1499      O1502   1.267       .  A
Cd1500     O1507   2.482       .  S
Cd1500     O1506   2.497       .  S
Cd1500     O1505   2.426       .  S
Cd1500     O1501   2.498       .  S
Cd1500     O1504   2.423       .  S
Cd1500     O1502   2.532       .  S
C1503      O1507   1.264       .  A
O1508      C1511   1.267       .  A
O1508     Cd1513   2.514       .  S
C1509      O1518   1.264       .  A
C1509      O1514   1.269       .  A
O1510      C1516   1.269       .  A
O1510     Cd1513   2.520       .  S
C1511      C1541   1.483       .  S
C1511      O1519   1.263       .  A
C1512      O1517   1.270       .  A
C1512      O1515   1.265       .  A
Cd1513     O1520   2.441       .  S
Cd1513     O1519   2.439       .  S
Cd1513     O1518   2.479       .  S
Cd1513     O1514   2.508       .  S
Cd1513     O1517   2.511       .  S
Cd1513     O1515   2.504       .  S
C1516      C1521   1.486       .  S
C1516      O1520   1.262       .  A
C1521      C1522   1.416       .  A
C1521      C1526   1.407       .  A
C1522      C1523   1.400       .  A
C1522     Br1538   1.922       .  S
C1523      C1524   1.401       .  A
C1523      H1527   1.084       .  S
C1524      C1525   1.406       .  A
C1524      C1528   1.481       .  S
C1525      C1526   1.404       .  A
C1525     Br1537   1.916       .  S
C1526      H1529   1.083       .  S
C1528      C1530   1.400       .  A
C1528      C1534   1.409       .  A
C1530      C1531   1.396       .  A
C1530      H1535   1.084       .  S
C1531      C1532   1.409       .  A
C1531     Br1539   1.920       .  S
C1532      C1533   1.407       .  A
C1533      C1534   1.407       .  A
C1533      H1536   1.083       .  S
C1534     Br1540   1.918       .  S
C1541      C1542   1.416       .  A
C1541      C1546   1.405       .  A
C1542      C1543   1.404       .  A
C1542     Br1558   1.918       .  S
C1543      C1544   1.401       .  A
C1543      H1547   1.083       .  S
C1544      C1545   1.405       .  A
C1545      C1546   1.395       .  A
C1546      H1549   1.084       .  S
C1548      C1550   1.401       .  A
C1548      C1554   1.407       .  A
C1550      C1551   1.402       .  A
C1550      H1555   1.084       .  S
C1551      C1552   1.414       .  A
C1551     Br1559   1.918       .  S
C1552      C1553   1.405       .  A
C1553      C1554   1.395       .  A
C1553      H1556   1.084       .  S
C1561      C1562   1.419       .  A
C1561      C1566   1.408       .  A
C1562      C1563   1.407       .  A
C1562     Br1578   1.919       .  S
C1563      C1564   1.402       .  A
C1563      H1567   1.082       .  S
C1564      C1565   1.404       .  A
C1564      C1568   1.480       .  S
C1565      C1566   1.395       .  A
C1565     Br1577   1.920       .  S
C1566      H1569   1.083       .  S
C1568      C1570   1.402       .  A
C1568      C1574   1.406       .  A
C1570      C1571   1.401       .  A
C1570      H1575   1.083       .  S
C1571      C1572   1.414       .  A
C1571     Br1579   1.921       .  S
C1572      C1573   1.406       .  A
C1573      C1574   1.400       .  A
C1573      H1576   1.083       .  S
C1574     Br1580   1.918       .  S
C1581      C1582   1.420       .  A
C1581      C1586   1.408       .  A
C1582      C1583   1.407       .  A
C1582     Br1598   1.919       .  S
C1583      C1584   1.402       .  A
C1584      C1585   1.405       .  A
C1585      C1586   1.395       .  A
C1585     Br1597   1.921       .  S
C1586      H1589   1.083       .  S
C1588      C1590   1.399       .  A
C1588      C1594   1.407   1_554  A
C1590      C1591   1.396   1_554  A
C1590      H1595   1.084       .  S
C1591      C1592   1.415       .  A
C1591     Br1599   1.923   1_556  S
C1592      C1593   1.408       .  A
C1593      C1594   1.405       .  A
C1593      H1596   1.083       .  S
C1594     Br1600   1.916       .  S
